<?xml version="1.0" encoding="UTF-8"?>

<!-- generated on 2026-04-13T15:58:03.470645+08:00 by Eclipse SUMO jtrrouter 1.26.0
<jtrrouterConfiguration xmlns:xsi="http://www.w3.org/2001/XMLSchema-instance" xsi:noNamespaceSchemaLocation="http://sumo.dlr.de/xsd/jtrrouterConfiguration.xsd">

    <input>
        <net-file value="/home/wmn/Coding_Project/TrafficAlpha/SingleTSC_TranSimHub/exp_junction/Chengdu_Chenghannanlu/./networks/normal.net.xml"/>
        <route-files value="/home/wmn/Coding_Project/TrafficAlpha/SingleTSC_TranSimHub/exp_junction/Chengdu_Chenghannanlu/./testflow.trip.xml"/>
        <turn-ratio-files value="/home/wmn/Coding_Project/TrafficAlpha/SingleTSC_TranSimHub/exp_junction/Chengdu_Chenghannanlu/./testflow.turndefs.xml"/>
    </input>

    <output>
        <output-file value="/home/wmn/Coding_Project/TrafficAlpha/SingleTSC_TranSimHub/exp_junction/Chengdu_Chenghannanlu/./routes/low_density.rou.xml"/>
    </output>

    <processing>
        <randomize-flows value="True"/>
        <accept-all-destinations value="True"/>
    </processing>

    <defaults>
        <departlane value="random"/>
    </defaults>

    <report>
        <no-warnings value="true"/>
    </report>

    <random_number>
        <seed value="777"/>
    </random_number>

</jtrrouterConfiguration>
-->

<routes xmlns:xsi="http://www.w3.org/2001/XMLSchema-instance" xsi:noNamespaceSchemaLocation="http://sumo.dlr.de/xsd/routes_file.xsd">
    <vType id="background" length="5.00" color="220,220,220" tau="1.0"/>
    <vehicle id="471999771#0.1574__0__background.0" type="background" depart="3.58" departLane="random">
        <route edges="471999771#0.1574 845412821#0"/>
    </vehicle>
    <vehicle id="845412822.360__0__background.0" type="background" depart="6.54" departLane="random">
        <route edges="845412822.360 298932650#1"/>
    </vehicle>
    <vehicle id="845412822.360__0__background.1" type="background" depart="6.80" departLane="random">
        <route edges="845412822.360 298932653#1"/>
    </vehicle>
    <vehicle id="471999771#0.1574__0__background.1" type="background" depart="10.88" departLane="random">
        <route edges="471999771#0.1574 845412821#0"/>
    </vehicle>
    <vehicle id="471999771#0.1574__0__background.2" type="background" depart="11.03" departLane="random">
        <route edges="471999771#0.1574 298932653#1"/>
    </vehicle>
    <vehicle id="845412822.360__0__background.2" type="background" depart="12.32" departLane="random">
        <route edges="845412822.360 298932650#1"/>
    </vehicle>
    <vehicle id="458749037#0.1098__0__background.0" type="background" depart="15.93" departLane="random">
        <route edges="458749037#0.1098 845412821#0"/>
    </vehicle>
    <vehicle id="471999771#0.1574__0__background.3" type="background" depart="17.37" departLane="random">
        <route edges="471999771#0.1574 845412821#0"/>
    </vehicle>
    <vehicle id="845412822.360__0__background.3" type="background" depart="19.28" departLane="random">
        <route edges="845412822.360 298932650#1"/>
    </vehicle>
    <vehicle id="845412822.360__0__background.4" type="background" depart="20.32" departLane="random">
        <route edges="845412822.360 298932650#1"/>
    </vehicle>
    <vehicle id="845412822.360__0__background.5" type="background" depart="25.90" departLane="random">
        <route edges="845412822.360 298932650#1"/>
    </vehicle>
    <vehicle id="458749037#0.1098__0__background.1" type="background" depart="26.70" departLane="random">
        <route edges="458749037#0.1098 298932650#1"/>
    </vehicle>
    <vehicle id="845412822.360__0__background.6" type="background" depart="26.95" departLane="random">
        <route edges="845412822.360 298932653#1"/>
    </vehicle>
    <vehicle id="471999771#0.1574__0__background.4" type="background" depart="28.79" departLane="random">
        <route edges="471999771#0.1574 298932653#1"/>
    </vehicle>
    <vehicle id="458749037#0.1098__0__background.2" type="background" depart="36.79" departLane="random">
        <route edges="458749037#0.1098 298932650#1"/>
    </vehicle>
    <vehicle id="458749037#0.1098__0__background.3" type="background" depart="40.54" departLane="random">
        <route edges="458749037#0.1098 298932650#1"/>
    </vehicle>
    <vehicle id="845412822.360__0__background.7" type="background" depart="40.85" departLane="random">
        <route edges="845412822.360 298932653#1"/>
    </vehicle>
    <vehicle id="471999771#0.1574__0__background.5" type="background" depart="44.46" departLane="random">
        <route edges="471999771#0.1574 298932653#1"/>
    </vehicle>
    <vehicle id="458749037#0.1098__0__background.4" type="background" depart="47.92" departLane="random">
        <route edges="458749037#0.1098 298932650#1"/>
    </vehicle>
    <vehicle id="458749037#0.1098__0__background.5" type="background" depart="52.13" departLane="random">
        <route edges="458749037#0.1098 845412821#0"/>
    </vehicle>
    <vehicle id="471999771#0.1574__0__background.6" type="background" depart="54.94" departLane="random">
        <route edges="471999771#0.1574 845412821#0"/>
    </vehicle>
    <vehicle id="471999771#0.1574__1__background.0" type="background" depart="60.84" departLane="random">
        <route edges="471999771#0.1574 298932653#1"/>
    </vehicle>
    <vehicle id="845412822.360__1__background.0" type="background" depart="64.16" departLane="random">
        <route edges="845412822.360 298932650#1"/>
    </vehicle>
    <vehicle id="471999771#0.1574__1__background.1" type="background" depart="65.68" departLane="random">
        <route edges="471999771#0.1574 298932653#1"/>
    </vehicle>
    <vehicle id="845412822.360__1__background.1" type="background" depart="65.99" departLane="random">
        <route edges="845412822.360 298932650#1"/>
    </vehicle>
    <vehicle id="458749037#0.1098__1__background.0" type="background" depart="67.71" departLane="random">
        <route edges="458749037#0.1098 845412821#0"/>
    </vehicle>
    <vehicle id="845412822.360__1__background.2" type="background" depart="67.95" departLane="random">
        <route edges="845412822.360 298932653#1"/>
    </vehicle>
    <vehicle id="458749037#0.1098__1__background.1" type="background" depart="70.82" departLane="random">
        <route edges="458749037#0.1098 298932650#1"/>
    </vehicle>
    <vehicle id="471999771#0.1574__1__background.2" type="background" depart="75.68" departLane="random">
        <route edges="471999771#0.1574 298932653#1"/>
    </vehicle>
    <vehicle id="471999771#0.1574__1__background.3" type="background" depart="76.75" departLane="random">
        <route edges="471999771#0.1574 298932653#1"/>
    </vehicle>
    <vehicle id="471999771#0.1574__1__background.4" type="background" depart="83.35" departLane="random">
        <route edges="471999771#0.1574 298932653#1"/>
    </vehicle>
    <vehicle id="845412822.360__1__background.3" type="background" depart="88.29" departLane="random">
        <route edges="845412822.360 298932650#1"/>
    </vehicle>
    <vehicle id="845412822.360__1__background.4" type="background" depart="93.66" departLane="random">
        <route edges="845412822.360 298932650#1"/>
    </vehicle>
    <vehicle id="458749037#0.1098__1__background.2" type="background" depart="95.91" departLane="random">
        <route edges="458749037#0.1098 298932650#1"/>
    </vehicle>
    <vehicle id="458749037#0.1098__1__background.3" type="background" depart="101.30" departLane="random">
        <route edges="458749037#0.1098 298932650#1"/>
    </vehicle>
    <vehicle id="845412822.360__1__background.5" type="background" depart="103.19" departLane="random">
        <route edges="845412822.360 298932653#1"/>
    </vehicle>
    <vehicle id="471999771#0.1574__1__background.5" type="background" depart="106.02" departLane="random">
        <route edges="471999771#0.1574 845412821#0"/>
    </vehicle>
    <vehicle id="845412822.360__1__background.6" type="background" depart="106.02" departLane="random">
        <route edges="845412822.360 298932653#1"/>
    </vehicle>
    <vehicle id="458749037#0.1098__1__background.4" type="background" depart="108.23" departLane="random">
        <route edges="458749037#0.1098 298932650#1"/>
    </vehicle>
    <vehicle id="471999771#0.1574__1__background.6" type="background" depart="111.52" departLane="random">
        <route edges="471999771#0.1574 298932653#1"/>
    </vehicle>
    <vehicle id="845412822.360__1__background.7" type="background" depart="113.45" departLane="random">
        <route edges="845412822.360 298932650#1"/>
    </vehicle>
    <vehicle id="458749037#0.1098__1__background.5" type="background" depart="116.15" departLane="random">
        <route edges="458749037#0.1098 845412821#0"/>
    </vehicle>
    <vehicle id="471999771#0.1574__2__background.0" type="background" depart="120.03" departLane="random">
        <route edges="471999771#0.1574 845412821#0"/>
    </vehicle>
    <vehicle id="471999771#0.1574__2__background.1" type="background" depart="124.54" departLane="random">
        <route edges="471999771#0.1574 845412821#0"/>
    </vehicle>
    <vehicle id="845412822.360__2__background.0" type="background" depart="129.31" departLane="random">
        <route edges="845412822.360 298932650#1"/>
    </vehicle>
    <vehicle id="845412822.360__2__background.1" type="background" depart="131.26" departLane="random">
        <route edges="845412822.360 298932650#1"/>
    </vehicle>
    <vehicle id="845412822.360__2__background.2" type="background" depart="135.08" departLane="random">
        <route edges="845412822.360 298932653#1"/>
    </vehicle>
    <vehicle id="458749037#0.1098__2__background.0" type="background" depart="145.22" departLane="random">
        <route edges="458749037#0.1098 845412821#0"/>
    </vehicle>
    <vehicle id="458749037#0.1098__2__background.1" type="background" depart="146.23" departLane="random">
        <route edges="458749037#0.1098 298932650#1"/>
    </vehicle>
    <vehicle id="458749037#0.1098__2__background.2" type="background" depart="146.40" departLane="random">
        <route edges="458749037#0.1098 298932650#1"/>
    </vehicle>
    <vehicle id="458749037#0.1098__2__background.3" type="background" depart="150.89" departLane="random">
        <route edges="458749037#0.1098 298932650#1"/>
    </vehicle>
    <vehicle id="458749037#0.1098__2__background.4" type="background" depart="151.08" departLane="random">
        <route edges="458749037#0.1098 845412821#0"/>
    </vehicle>
    <vehicle id="458749037#0.1098__2__background.5" type="background" depart="159.15" departLane="random">
        <route edges="458749037#0.1098 298932650#1"/>
    </vehicle>
    <vehicle id="458749037#0.1098__2__background.6" type="background" depart="168.14" departLane="random">
        <route edges="458749037#0.1098 298932650#1"/>
    </vehicle>
    <vehicle id="471999771#0.1574__2__background.2" type="background" depart="169.14" departLane="random">
        <route edges="471999771#0.1574 845412821#0"/>
    </vehicle>
    <vehicle id="845412822.360__2__background.3" type="background" depart="171.42" departLane="random">
        <route edges="845412822.360 298932653#1"/>
    </vehicle>
    <vehicle id="845412822.360__2__background.4" type="background" depart="173.47" departLane="random">
        <route edges="845412822.360 298932653#1"/>
    </vehicle>
    <vehicle id="845412822.360__2__background.5" type="background" depart="174.52" departLane="random">
        <route edges="845412822.360 298932650#1"/>
    </vehicle>
    <vehicle id="471999771#0.1574__2__background.3" type="background" depart="177.89" departLane="random">
        <route edges="471999771#0.1574 298932653#1"/>
    </vehicle>
    <vehicle id="471999771#0.1574__2__background.4" type="background" depart="179.78" departLane="random">
        <route edges="471999771#0.1574 298932653#1"/>
    </vehicle>
    <vehicle id="458749037#0.1098__3__background.0" type="background" depart="181.54" departLane="random">
        <route edges="458749037#0.1098 298932650#1"/>
    </vehicle>
    <vehicle id="471999771#0.1574__3__background.0" type="background" depart="183.43" departLane="random">
        <route edges="471999771#0.1574 845412821#0"/>
    </vehicle>
    <vehicle id="845412822.360__3__background.0" type="background" depart="183.47" departLane="random">
        <route edges="845412822.360 298932653#1"/>
    </vehicle>
    <vehicle id="845412822.360__3__background.1" type="background" depart="190.17" departLane="random">
        <route edges="845412822.360 298932653#1"/>
    </vehicle>
    <vehicle id="845412822.360__3__background.2" type="background" depart="192.29" departLane="random">
        <route edges="845412822.360 298932653#1"/>
    </vehicle>
    <vehicle id="471999771#0.1574__3__background.1" type="background" depart="192.41" departLane="random">
        <route edges="471999771#0.1574 845412821#0"/>
    </vehicle>
    <vehicle id="471999771#0.1574__3__background.2" type="background" depart="193.67" departLane="random">
        <route edges="471999771#0.1574 845412821#0"/>
    </vehicle>
    <vehicle id="458749037#0.1098__3__background.1" type="background" depart="195.59" departLane="random">
        <route edges="458749037#0.1098 298932650#1"/>
    </vehicle>
    <vehicle id="471999771#0.1574__3__background.3" type="background" depart="196.46" departLane="random">
        <route edges="471999771#0.1574 845412821#0"/>
    </vehicle>
    <vehicle id="845412822.360__3__background.3" type="background" depart="196.73" departLane="random">
        <route edges="845412822.360 298932650#1"/>
    </vehicle>
    <vehicle id="458749037#0.1098__3__background.2" type="background" depart="198.84" departLane="random">
        <route edges="458749037#0.1098 298932650#1"/>
    </vehicle>
    <vehicle id="471999771#0.1574__3__background.4" type="background" depart="200.50" departLane="random">
        <route edges="471999771#0.1574 845412821#0"/>
    </vehicle>
    <vehicle id="458749037#0.1098__3__background.3" type="background" depart="209.83" departLane="random">
        <route edges="458749037#0.1098 845412821#0"/>
    </vehicle>
    <vehicle id="845412822.360__3__background.4" type="background" depart="217.85" departLane="random">
        <route edges="845412822.360 298932650#1"/>
    </vehicle>
    <vehicle id="458749037#0.1098__3__background.4" type="background" depart="222.87" departLane="random">
        <route edges="458749037#0.1098 298932650#1"/>
    </vehicle>
    <vehicle id="458749037#0.1098__3__background.5" type="background" depart="223.28" departLane="random">
        <route edges="458749037#0.1098 845412821#0"/>
    </vehicle>
    <vehicle id="458749037#0.1098__3__background.6" type="background" depart="225.90" departLane="random">
        <route edges="458749037#0.1098 298932650#1"/>
    </vehicle>
    <vehicle id="845412822.360__3__background.5" type="background" depart="230.49" departLane="random">
        <route edges="845412822.360 298932653#1"/>
    </vehicle>
    <vehicle id="471999771#0.1574__4__background.0" type="background" depart="241.00" departLane="random">
        <route edges="471999771#0.1574 845412821#0"/>
    </vehicle>
    <vehicle id="458749037#0.1098__4__background.0" type="background" depart="241.72" departLane="random">
        <route edges="458749037#0.1098 845412821#0"/>
    </vehicle>
    <vehicle id="845412822.360__4__background.0" type="background" depart="248.82" departLane="random">
        <route edges="845412822.360 298932650#1"/>
    </vehicle>
    <vehicle id="471999771#0.1574__4__background.1" type="background" depart="253.75" departLane="random">
        <route edges="471999771#0.1574 845412821#0"/>
    </vehicle>
    <vehicle id="458749037#0.1098__4__background.1" type="background" depart="254.01" departLane="random">
        <route edges="458749037#0.1098 298932650#1"/>
    </vehicle>
    <vehicle id="845412822.360__4__background.1" type="background" depart="258.82" departLane="random">
        <route edges="845412822.360 298932650#1"/>
    </vehicle>
    <vehicle id="845412822.360__4__background.2" type="background" depart="261.15" departLane="random">
        <route edges="845412822.360 298932653#1"/>
    </vehicle>
    <vehicle id="845412822.360__4__background.3" type="background" depart="261.25" departLane="random">
        <route edges="845412822.360 298932653#1"/>
    </vehicle>
    <vehicle id="458749037#0.1098__4__background.2" type="background" depart="263.16" departLane="random">
        <route edges="458749037#0.1098 845412821#0"/>
    </vehicle>
    <vehicle id="471999771#0.1574__4__background.2" type="background" depart="265.18" departLane="random">
        <route edges="471999771#0.1574 845412821#0"/>
    </vehicle>
    <vehicle id="458749037#0.1098__4__background.3" type="background" depart="267.35" departLane="random">
        <route edges="458749037#0.1098 845412821#0"/>
    </vehicle>
    <vehicle id="458749037#0.1098__4__background.4" type="background" depart="275.70" departLane="random">
        <route edges="458749037#0.1098 845412821#0"/>
    </vehicle>
    <vehicle id="471999771#0.1574__4__background.3" type="background" depart="280.90" departLane="random">
        <route edges="471999771#0.1574 298932653#1"/>
    </vehicle>
    <vehicle id="845412822.360__4__background.4" type="background" depart="284.49" departLane="random">
        <route edges="845412822.360 298932650#1"/>
    </vehicle>
    <vehicle id="458749037#0.1098__4__background.5" type="background" depart="284.98" departLane="random">
        <route edges="458749037#0.1098 298932650#1"/>
    </vehicle>
    <vehicle id="471999771#0.1574__4__background.4" type="background" depart="285.73" departLane="random">
        <route edges="471999771#0.1574 845412821#0"/>
    </vehicle>
    <vehicle id="458749037#0.1098__4__background.6" type="background" depart="287.92" departLane="random">
        <route edges="458749037#0.1098 845412821#0"/>
    </vehicle>
    <vehicle id="845412822.360__4__background.5" type="background" depart="288.93" departLane="random">
        <route edges="845412822.360 298932650#1"/>
    </vehicle>
    <vehicle id="471999771#0.1574__4__background.5" type="background" depart="291.75" departLane="random">
        <route edges="471999771#0.1574 298932653#1"/>
    </vehicle>
    <vehicle id="458749037#0.1098__4__background.7" type="background" depart="292.24" departLane="random">
        <route edges="458749037#0.1098 298932650#1"/>
    </vehicle>
    <vehicle id="471999771#0.1574__4__background.6" type="background" depart="292.84" departLane="random">
        <route edges="471999771#0.1574 845412821#0"/>
    </vehicle>
    <vehicle id="845412822.360__4__background.6" type="background" depart="294.15" departLane="random">
        <route edges="845412822.360 298932653#1"/>
    </vehicle>
    <vehicle id="471999771#0.1574__4__background.7" type="background" depart="297.52" departLane="random">
        <route edges="471999771#0.1574 298932653#1"/>
    </vehicle>
    <vehicle id="458749037#0.1098__5__background.0" type="background" depart="303.60" departLane="random">
        <route edges="458749037#0.1098 298932650#1"/>
    </vehicle>
    <vehicle id="458749037#0.1098__5__background.1" type="background" depart="308.79" departLane="random">
        <route edges="458749037#0.1098 845412821#0"/>
    </vehicle>
    <vehicle id="471999771#0.1574__5__background.0" type="background" depart="309.26" departLane="random">
        <route edges="471999771#0.1574 298932653#1"/>
    </vehicle>
    <vehicle id="471999771#0.1574__5__background.1" type="background" depart="317.41" departLane="random">
        <route edges="471999771#0.1574 298932653#1"/>
    </vehicle>
    <vehicle id="471999771#0.1574__5__background.2" type="background" depart="322.40" departLane="random">
        <route edges="471999771#0.1574 298932653#1"/>
    </vehicle>
    <vehicle id="471999771#0.1574__5__background.3" type="background" depart="324.84" departLane="random">
        <route edges="471999771#0.1574 298932653#1"/>
    </vehicle>
    <vehicle id="845412822.360__5__background.0" type="background" depart="326.74" departLane="random">
        <route edges="845412822.360 298932653#1"/>
    </vehicle>
    <vehicle id="845412822.360__5__background.1" type="background" depart="327.54" departLane="random">
        <route edges="845412822.360 298932653#1"/>
    </vehicle>
    <vehicle id="845412822.360__5__background.2" type="background" depart="329.73" departLane="random">
        <route edges="845412822.360 298932650#1"/>
    </vehicle>
    <vehicle id="845412822.360__5__background.3" type="background" depart="331.72" departLane="random">
        <route edges="845412822.360 298932653#1"/>
    </vehicle>
    <vehicle id="458749037#0.1098__5__background.2" type="background" depart="334.31" departLane="random">
        <route edges="458749037#0.1098 845412821#0"/>
    </vehicle>
    <vehicle id="458749037#0.1098__5__background.3" type="background" depart="334.60" departLane="random">
        <route edges="458749037#0.1098 845412821#0"/>
    </vehicle>
    <vehicle id="471999771#0.1574__5__background.4" type="background" depart="336.68" departLane="random">
        <route edges="471999771#0.1574 845412821#0"/>
    </vehicle>
    <vehicle id="458749037#0.1098__5__background.4" type="background" depart="337.11" departLane="random">
        <route edges="458749037#0.1098 298932650#1"/>
    </vehicle>
    <vehicle id="845412822.360__5__background.4" type="background" depart="337.26" departLane="random">
        <route edges="845412822.360 298932653#1"/>
    </vehicle>
    <vehicle id="845412822.360__5__background.5" type="background" depart="337.41" departLane="random">
        <route edges="845412822.360 298932653#1"/>
    </vehicle>
    <vehicle id="458749037#0.1098__5__background.5" type="background" depart="344.11" departLane="random">
        <route edges="458749037#0.1098 298932650#1"/>
    </vehicle>
    <vehicle id="845412822.360__5__background.6" type="background" depart="344.76" departLane="random">
        <route edges="845412822.360 298932653#1"/>
    </vehicle>
    <vehicle id="458749037#0.1098__5__background.6" type="background" depart="345.63" departLane="random">
        <route edges="458749037#0.1098 845412821#0"/>
    </vehicle>
    <vehicle id="458749037#0.1098__5__background.7" type="background" depart="351.29" departLane="random">
        <route edges="458749037#0.1098 845412821#0"/>
    </vehicle>
    <vehicle id="471999771#0.1574__5__background.5" type="background" depart="352.22" departLane="random">
        <route edges="471999771#0.1574 845412821#0"/>
    </vehicle>
    <vehicle id="471999771#0.1574__5__background.6" type="background" depart="355.70" departLane="random">
        <route edges="471999771#0.1574 845412821#0"/>
    </vehicle>
    <vehicle id="471999771#0.1574__5__background.7" type="background" depart="355.99" departLane="random">
        <route edges="471999771#0.1574 298932653#1"/>
    </vehicle>
    <vehicle id="471999771#0.1574__6__background.0" type="background" depart="361.21" departLane="random">
        <route edges="471999771#0.1574 845412821#0"/>
    </vehicle>
    <vehicle id="471999771#0.1574__6__background.1" type="background" depart="367.55" departLane="random">
        <route edges="471999771#0.1574 298932653#1"/>
    </vehicle>
    <vehicle id="471999771#0.1574__6__background.2" type="background" depart="375.95" departLane="random">
        <route edges="471999771#0.1574 298932653#1"/>
    </vehicle>
    <vehicle id="471999771#0.1574__6__background.3" type="background" depart="378.20" departLane="random">
        <route edges="471999771#0.1574 845412821#0"/>
    </vehicle>
    <vehicle id="845412822.360__6__background.0" type="background" depart="382.06" departLane="random">
        <route edges="845412822.360 298932653#1"/>
    </vehicle>
    <vehicle id="458749037#0.1098__6__background.0" type="background" depart="383.58" departLane="random">
        <route edges="458749037#0.1098 845412821#0"/>
    </vehicle>
    <vehicle id="458749037#0.1098__6__background.1" type="background" depart="385.07" departLane="random">
        <route edges="458749037#0.1098 298932650#1"/>
    </vehicle>
    <vehicle id="845412822.360__6__background.1" type="background" depart="388.08" departLane="random">
        <route edges="845412822.360 298932653#1"/>
    </vehicle>
    <vehicle id="458749037#0.1098__6__background.2" type="background" depart="393.39" departLane="random">
        <route edges="458749037#0.1098 845412821#0"/>
    </vehicle>
    <vehicle id="845412822.360__6__background.2" type="background" depart="397.22" departLane="random">
        <route edges="845412822.360 298932653#1"/>
    </vehicle>
    <vehicle id="458749037#0.1098__6__background.3" type="background" depart="397.44" departLane="random">
        <route edges="458749037#0.1098 845412821#0"/>
    </vehicle>
    <vehicle id="471999771#0.1574__6__background.4" type="background" depart="399.01" departLane="random">
        <route edges="471999771#0.1574 845412821#0"/>
    </vehicle>
    <vehicle id="471999771#0.1574__6__background.5" type="background" depart="401.40" departLane="random">
        <route edges="471999771#0.1574 845412821#0"/>
    </vehicle>
    <vehicle id="845412822.360__6__background.3" type="background" depart="406.09" departLane="random">
        <route edges="845412822.360 298932653#1"/>
    </vehicle>
    <vehicle id="845412822.360__6__background.4" type="background" depart="410.50" departLane="random">
        <route edges="845412822.360 298932653#1"/>
    </vehicle>
    <vehicle id="458749037#0.1098__6__background.4" type="background" depart="416.58" departLane="random">
        <route edges="458749037#0.1098 845412821#0"/>
    </vehicle>
    <vehicle id="471999771#0.1574__6__background.6" type="background" depart="417.53" departLane="random">
        <route edges="471999771#0.1574 845412821#0"/>
    </vehicle>
    <vehicle id="458749037#0.1098__6__background.5" type="background" depart="417.56" departLane="random">
        <route edges="458749037#0.1098 845412821#0"/>
    </vehicle>
    <vehicle id="845412822.360__6__background.5" type="background" depart="419.25" departLane="random">
        <route edges="845412822.360 298932653#1"/>
    </vehicle>
    <vehicle id="845412822.360__7__background.0" type="background" depart="422.06" departLane="random">
        <route edges="845412822.360 298932650#1"/>
    </vehicle>
    <vehicle id="845412822.360__7__background.1" type="background" depart="424.42" departLane="random">
        <route edges="845412822.360 298932653#1"/>
    </vehicle>
    <vehicle id="458749037#0.1098__7__background.0" type="background" depart="430.58" departLane="random">
        <route edges="458749037#0.1098 298932650#1"/>
    </vehicle>
    <vehicle id="458749037#0.1098__7__background.1" type="background" depart="440.24" departLane="random">
        <route edges="458749037#0.1098 845412821#0"/>
    </vehicle>
    <vehicle id="471999771#0.1574__7__background.0" type="background" depart="443.13" departLane="random">
        <route edges="471999771#0.1574 298932653#1"/>
    </vehicle>
    <vehicle id="471999771#0.1574__7__background.1" type="background" depart="444.16" departLane="random">
        <route edges="471999771#0.1574 298932653#1"/>
    </vehicle>
    <vehicle id="458749037#0.1098__7__background.2" type="background" depart="450.61" departLane="random">
        <route edges="458749037#0.1098 298932650#1"/>
    </vehicle>
    <vehicle id="471999771#0.1574__7__background.2" type="background" depart="450.66" departLane="random">
        <route edges="471999771#0.1574 298932653#1"/>
    </vehicle>
    <vehicle id="845412822.360__7__background.2" type="background" depart="451.56" departLane="random">
        <route edges="845412822.360 298932653#1"/>
    </vehicle>
    <vehicle id="471999771#0.1574__7__background.3" type="background" depart="452.73" departLane="random">
        <route edges="471999771#0.1574 298932653#1"/>
    </vehicle>
    <vehicle id="458749037#0.1098__7__background.3" type="background" depart="453.57" departLane="random">
        <route edges="458749037#0.1098 298932650#1"/>
    </vehicle>
    <vehicle id="471999771#0.1574__7__background.4" type="background" depart="456.77" departLane="random">
        <route edges="471999771#0.1574 298932653#1"/>
    </vehicle>
    <vehicle id="471999771#0.1574__7__background.5" type="background" depart="457.89" departLane="random">
        <route edges="471999771#0.1574 298932653#1"/>
    </vehicle>
    <vehicle id="458749037#0.1098__7__background.4" type="background" depart="459.97" departLane="random">
        <route edges="458749037#0.1098 298932650#1"/>
    </vehicle>
    <vehicle id="458749037#0.1098__7__background.5" type="background" depart="462.09" departLane="random">
        <route edges="458749037#0.1098 298932650#1"/>
    </vehicle>
    <vehicle id="845412822.360__7__background.3" type="background" depart="467.48" departLane="random">
        <route edges="845412822.360 298932653#1"/>
    </vehicle>
    <vehicle id="845412822.360__7__background.4" type="background" depart="472.97" departLane="random">
        <route edges="845412822.360 298932653#1"/>
    </vehicle>
    <vehicle id="845412822.360__7__background.5" type="background" depart="478.13" departLane="random">
        <route edges="845412822.360 298932650#1"/>
    </vehicle>
    <vehicle id="471999771#0.1574__7__background.6" type="background" depart="479.89" departLane="random">
        <route edges="471999771#0.1574 845412821#0"/>
    </vehicle>
    <vehicle id="845412822.360__8__background.0" type="background" depart="489.40" departLane="random">
        <route edges="845412822.360 298932653#1"/>
    </vehicle>
    <vehicle id="471999771#0.1574__8__background.0" type="background" depart="490.00" departLane="random">
        <route edges="471999771#0.1574 845412821#0"/>