<?xml version="1.0" encoding="UTF-8"?>

<!-- generated on 2026-04-13T16:13:49.670076+08:00 by Eclipse SUMO jtrrouter 1.26.0
<jtrrouterConfiguration xmlns:xsi="http://www.w3.org/2001/XMLSchema-instance" xsi:noNamespaceSchemaLocation="http://sumo.dlr.de/xsd/jtrrouterConfiguration.xsd">

    <input>
        <net-file value="/home/wmn/Coding_Project/TrafficAlpha/SingleTSC_TranSimHub/exp_junction/France_Massy/./networks/normal.net.xml"/>
        <route-files value="/home/wmn/Coding_Project/TrafficAlpha/SingleTSC_TranSimHub/exp_junction/France_Massy/./testflow.trip.xml"/>
        <turn-ratio-files value="/home/wmn/Coding_Project/TrafficAlpha/SingleTSC_TranSimHub/exp_junction/France_Massy/./testflow.turndefs.xml"/>
    </input>

    <output>
        <output-file value="/home/wmn/Coding_Project/TrafficAlpha/SingleTSC_TranSimHub/exp_junction/France_Massy/./routes/increasing_demand.rou.xml"/>
    </output>

    <processing>
        <randomize-flows value="True"/>
        <accept-all-destinations value="True"/>
    </processing>

    <defaults>
        <departlane value="random"/>
    </defaults>

    <report>
        <no-warnings value="true"/>
    </report>

    <random_number>
        <seed value="777"/>
    </random_number>

</jtrrouterConfiguration>
-->

<routes xmlns:xsi="http://www.w3.org/2001/XMLSchema-instance" xsi:noNamespaceSchemaLocation="http://sumo.dlr.de/xsd/routes_file.xsd">
    <vType id="background" length="5.00" color="220,220,220" tau="1.0"/>
    <vehicle id="172801188#0.85__0__background.0" type="background" depart="3.58" departLane="random">
        <route edges="172801188#0.85 -172801130"/>
    </vehicle>
    <vehicle id="172801188#0.85__0__background.1" type="background" depart="6.54" departLane="random">
        <route edges="172801188#0.85 -172801130"/>
    </vehicle>
    <vehicle id="-172801188#1.174__0__background.0" type="background" depart="6.80" departLane="random">
        <route edges="-172801188#1.174 -172801188#0"/>
    </vehicle>
    <vehicle id="-172801188#1.174__0__background.1" type="background" depart="7.71" departLane="random">
        <route edges="-172801188#1.174 -172801188#0"/>
    </vehicle>
    <vehicle id="-172801188#1.174__0__background.2" type="background" depart="10.82" departLane="random">
        <route edges="-172801188#1.174 -172801130"/>
    </vehicle>
    <vehicle id="172801188#0.85__0__background.2" type="background" depart="10.88" departLane="random">
        <route edges="172801188#0.85 -172801130"/>
    </vehicle>
    <vehicle id="172801188#0.85__0__background.3" type="background" depart="11.03" departLane="random">
        <route edges="172801188#0.85 -172801130"/>
    </vehicle>
    <vehicle id="-172801188#1.174__0__background.3" type="background" depart="12.32" departLane="random">
        <route edges="-172801188#1.174 -172801188#0"/>
    </vehicle>
    <vehicle id="172801130.183__0__background.0" type="background" depart="15.93" departLane="random">
        <route edges="172801130.183 -172801188#0"/>
    </vehicle>
    <vehicle id="172801188#0.85__0__background.4" type="background" depart="17.37" departLane="random">
        <route edges="172801188#0.85 -172801130"/>
    </vehicle>
    <vehicle id="-172801188#1.174__0__background.4" type="background" depart="19.28" departLane="random">
        <route edges="-172801188#1.174 -172801188#0"/>
    </vehicle>
    <vehicle id="-172801188#1.174__0__background.5" type="background" depart="20.32" departLane="random">
        <route edges="-172801188#1.174 -172801188#0"/>
    </vehicle>
    <vehicle id="172801188#0.85__0__background.5" type="background" depart="25.90" departLane="random">
        <route edges="172801188#0.85 172801188#1"/>
    </vehicle>
    <vehicle id="172801130.183__0__background.1" type="background" depart="26.70" departLane="random">
        <route edges="172801130.183 -172801188#0"/>
    </vehicle>
    <vehicle id="-172801188#1.174__0__background.6" type="background" depart="26.95" departLane="random">
        <route edges="-172801188#1.174 -172801130"/>
    </vehicle>
    <vehicle id="172801188#0.85__0__background.6" type="background" depart="28.79" departLane="random">
        <route edges="172801188#0.85 -172801130"/>
    </vehicle>
    <vehicle id="172801130.183__0__background.2" type="background" depart="36.79" departLane="random">
        <route edges="172801130.183 -172801188#0"/>
    </vehicle>
    <vehicle id="172801130.183__0__background.3" type="background" depart="40.54" departLane="random">
        <route edges="172801130.183 172801188#1"/>
    </vehicle>
    <vehicle id="172801188#0.85__0__background.7" type="background" depart="40.85" departLane="random">
        <route edges="172801188#0.85 172801188#1"/>
    </vehicle>
    <vehicle id="-172801188#1.174__0__background.7" type="background" depart="41.30" departLane="random">
        <route edges="-172801188#1.174 -172801188#0"/>
    </vehicle>
    <vehicle id="172801188#0.85__0__background.8" type="background" depart="44.46" departLane="random">
        <route edges="172801188#0.85 172801188#1"/>
    </vehicle>
    <vehicle id="172801130.183__0__background.4" type="background" depart="47.92" departLane="random">
        <route edges="172801130.183 172801188#1"/>
    </vehicle>
    <vehicle id="-172801188#1.174__0__background.8" type="background" depart="48.23" departLane="random">
        <route edges="-172801188#1.174 -172801188#0"/>
    </vehicle>
    <vehicle id="172801130.183__0__background.5" type="background" depart="52.13" departLane="random">
        <route edges="172801130.183 -172801188#0"/>
    </vehicle>
    <vehicle id="172801130.183__0__background.6" type="background" depart="54.94" departLane="random">
        <route edges="172801130.183 172801188#1"/>
    </vehicle>
    <vehicle id="172801130.183__1__background.0" type="background" depart="60.84" departLane="random">
        <route edges="172801130.183 -172801188#0"/>
    </vehicle>
    <vehicle id="172801188#0.85__1__background.0" type="background" depart="64.16" departLane="random">
        <route edges="172801188#0.85 -172801130"/>
    </vehicle>
    <vehicle id="172801130.183__1__background.1" type="background" depart="65.68" departLane="random">
        <route edges="172801130.183 -172801188#0"/>
    </vehicle>
    <vehicle id="172801188#0.85__1__background.1" type="background" depart="65.99" departLane="random">
        <route edges="172801188#0.85 -172801130"/>
    </vehicle>
    <vehicle id="172801188#0.85__1__background.2" type="background" depart="67.95" departLane="random">
        <route edges="172801188#0.85 172801188#1"/>
    </vehicle>
    <vehicle id="172801130.183__1__background.2" type="background" depart="75.68" departLane="random">
        <route edges="172801130.183 172801188#1"/>
    </vehicle>
    <vehicle id="172801130.183__1__background.3" type="background" depart="76.75" departLane="random">
        <route edges="172801130.183 -172801188#0"/>
    </vehicle>
    <vehicle id="172801188#0.85__1__background.3" type="background" depart="83.35" departLane="random">
        <route edges="172801188#0.85 -172801130"/>
    </vehicle>
    <vehicle id="-172801188#1.174__1__background.0" type="background" depart="85.22" departLane="random">
        <route edges="-172801188#1.174 -172801188#0"/>
    </vehicle>
    <vehicle id="-172801188#1.174__1__background.1" type="background" depart="86.23" departLane="random">
        <route edges="-172801188#1.174 -172801188#0"/>
    </vehicle>
    <vehicle id="-172801188#1.174__1__background.2" type="background" depart="86.40" departLane="random">
        <route edges="-172801188#1.174 -172801188#0"/>
    </vehicle>
    <vehicle id="172801188#0.85__1__background.4" type="background" depart="88.29" departLane="random">
        <route edges="172801188#0.85 172801188#1"/>
    </vehicle>
    <vehicle id="-172801188#1.174__1__background.3" type="background" depart="90.89" departLane="random">
        <route edges="-172801188#1.174 -172801130"/>
    </vehicle>
    <vehicle id="-172801188#1.174__1__background.4" type="background" depart="91.08" departLane="random">
        <route edges="-172801188#1.174 -172801188#0"/>
    </vehicle>
    <vehicle id="172801188#0.85__1__background.5" type="background" depart="93.66" departLane="random">
        <route edges="172801188#0.85 -172801130"/>
    </vehicle>
    <vehicle id="172801130.183__1__background.4" type="background" depart="95.91" departLane="random">
        <route edges="172801130.183 172801188#1"/>
    </vehicle>
    <vehicle id="-172801188#1.174__1__background.5" type="background" depart="99.15" departLane="random">
        <route edges="-172801188#1.174 -172801130"/>
    </vehicle>
    <vehicle id="-172801188#1.174__1__background.6" type="background" depart="103.19" departLane="random">
        <route edges="-172801188#1.174 -172801188#0"/>
    </vehicle>
    <vehicle id="172801130.183__1__background.5" type="background" depart="106.02" departLane="random">
        <route edges="172801130.183 172801188#1"/>
    </vehicle>
    <vehicle id="172801188#0.85__1__background.6" type="background" depart="106.02" departLane="random">
        <route edges="172801188#0.85 172801188#1"/>
    </vehicle>
    <vehicle id="-172801188#1.174__1__background.7" type="background" depart="108.14" departLane="random">
        <route edges="-172801188#1.174 -172801188#0"/>
    </vehicle>
    <vehicle id="172801188#0.85__1__background.7" type="background" depart="111.52" departLane="random">
        <route edges="172801188#0.85 172801188#1"/>
    </vehicle>
    <vehicle id="172801188#0.85__1__background.8" type="background" depart="113.45" departLane="random">
        <route edges="172801188#0.85 172801188#1"/>
    </vehicle>
    <vehicle id="172801130.183__1__background.6" type="background" depart="116.15" departLane="random">
        <route edges="172801130.183 -172801188#0"/>
    </vehicle>
    <vehicle id="-172801188#1.174__1__background.8" type="background" depart="119.78" departLane="random">
        <route edges="-172801188#1.174 -172801130"/>
    </vehicle>
    <vehicle id="172801130.183__2__background.0" type="background" depart="120.03" departLane="random">
        <route edges="172801130.183 -172801188#0"/>
    </vehicle>
    <vehicle id="172801188#0.85__2__background.0" type="background" depart="121.54" departLane="random">
        <route edges="172801188#0.85 172801188#1"/>
    </vehicle>
    <vehicle id="-172801188#1.174__2__background.0" type="background" depart="121.72" departLane="random">
        <route edges="-172801188#1.174 -172801130"/>
    </vehicle>
    <vehicle id="172801188#0.85__2__background.1" type="background" depart="123.43" departLane="random">
        <route edges="172801188#0.85 172801188#1"/>
    </vehicle>
    <vehicle id="-172801188#1.174__2__background.1" type="background" depart="123.47" departLane="random">
        <route edges="-172801188#1.174 -172801130"/>
    </vehicle>
    <vehicle id="172801130.183__2__background.1" type="background" depart="124.54" departLane="random">
        <route edges="172801130.183 -172801188#0"/>
    </vehicle>
    <vehicle id="172801130.183__2__background.2" type="background" depart="129.31" departLane="random">
        <route edges="172801130.183 -172801188#0"/>
    </vehicle>
    <vehicle id="-172801188#1.174__2__background.2" type="background" depart="130.17" departLane="random">
        <route edges="-172801188#1.174 -172801188#0"/>
    </vehicle>
    <vehicle id="172801130.183__2__background.3" type="background" depart="131.26" departLane="random">
        <route edges="172801130.183 -172801188#0"/>
    </vehicle>
    <vehicle id="-172801188#1.174__2__background.3" type="background" depart="132.29" departLane="random">
        <route edges="-172801188#1.174 -172801130"/>
    </vehicle>
    <vehicle id="-172801188#1.174__2__background.4" type="background" depart="132.41" departLane="random">
        <route edges="-172801188#1.174 -172801130"/>
    </vehicle>
    <vehicle id="172801188#0.85__2__background.2" type="background" depart="133.67" departLane="random">
        <route edges="172801188#0.85 172801188#1"/>
    </vehicle>
    <vehicle id="172801130.183__2__background.4" type="background" depart="135.08" departLane="random">
        <route edges="172801130.183 172801188#1"/>
    </vehicle>
    <vehicle id="172801188#0.85__2__background.3" type="background" depart="135.59" departLane="random">
        <route edges="172801188#0.85 172801188#1"/>
    </vehicle>
    <vehicle id="172801188#0.85__2__background.4" type="background" depart="136.46" departLane="random">
        <route edges="172801188#0.85 -172801130"/>
    </vehicle>
    <vehicle id="-172801188#1.174__2__background.5" type="background" depart="136.73" departLane="random">
        <route edges="-172801188#1.174 -172801130"/>
    </vehicle>
    <vehicle id="172801188#0.85__2__background.5" type="background" depart="138.84" departLane="random">
        <route edges="172801188#0.85 -172801130"/>
    </vehicle>
    <vehicle id="-172801188#1.174__2__background.6" type="background" depart="140.50" departLane="random">
        <route edges="-172801188#1.174 -172801130"/>
    </vehicle>
    <vehicle id="-172801188#1.174__2__background.7" type="background" depart="147.35" departLane="random">
        <route edges="-172801188#1.174 -172801188#0"/>
    </vehicle>
    <vehicle id="172801188#0.85__2__background.6" type="background" depart="149.83" departLane="random">
        <route edges="172801188#0.85 172801188#1"/>
    </vehicle>
    <vehicle id="-172801188#1.174__2__background.8" type="background" depart="157.85" departLane="random">
        <route edges="-172801188#1.174 -172801188#0"/>
    </vehicle>
    <vehicle id="172801188#0.85__2__background.7" type="background" depart="162.87" departLane="random">
        <route edges="172801188#0.85 172801188#1"/>
    </vehicle>
    <vehicle id="172801188#0.85__2__background.8" type="background" depart="163.28" departLane="random">
        <route edges="172801188#0.85 172801188#1"/>
    </vehicle>
    <vehicle id="-172801188#1.174__2__background.9" type="background" depart="164.98" departLane="random">
        <route edges="-172801188#1.174 -172801130"/>
    </vehicle>
    <vehicle id="172801188#0.85__2__background.9" type="background" depart="165.90" departLane="random">
        <route edges="172801188#0.85 172801188#1"/>
    </vehicle>
    <vehicle id="-172801188#1.174__2__background.10" type="background" depart="167.92" departLane="random">
        <route edges="-172801188#1.174 -172801188#0"/>
    </vehicle>
    <vehicle id="172801130.183__2__background.5" type="background" depart="169.14" departLane="random">
        <route edges="172801130.183 172801188#1"/>
    </vehicle>
    <vehicle id="-172801188#1.174__2__background.11" type="background" depart="170.49" departLane="random">
        <route edges="-172801188#1.174 -172801130"/>
    </vehicle>
    <vehicle id="172801130.183__2__background.6" type="background" depart="171.42" departLane="random">
        <route edges="172801130.183 -172801188#0"/>
    </vehicle>
    <vehicle id="172801130.183__2__background.7" type="background" depart="173.47" departLane="random">
        <route edges="172801130.183 172801188#1"/>
    </vehicle>
    <vehicle id="172801130.183__2__background.8" type="background" depart="174.52" departLane="random">
        <route edges="172801130.183 -172801188#0"/>
    </vehicle>
    <vehicle id="172801130.183__2__background.9" type="background" depart="177.89" departLane="random">
        <route edges="172801130.183 -172801188#0"/>
    </vehicle>
    <vehicle id="172801130.183__3__background.0" type="background" depart="180.09" departLane="random">
        <route edges="172801130.183 172801188#1"/>
    </vehicle>
    <vehicle id="172801130.183__3__background.1" type="background" depart="180.19" departLane="random">
        <route edges="172801130.183 172801188#1"/>
    </vehicle>
    <vehicle id="172801188#0.85__3__background.0" type="background" depart="184.84" departLane="random">
        <route edges="172801188#0.85 172801188#1"/>
    </vehicle>
    <vehicle id="-172801188#1.174__3__background.0" type="background" depart="188.46" departLane="random">
        <route edges="-172801188#1.174 -172801130"/>
    </vehicle>
    <vehicle id="172801130.183__3__background.2" type="background" depart="194.01" departLane="random">
        <route edges="172801130.183 172801188#1"/>
    </vehicle>
    <vehicle id="-172801188#1.174__3__background.1" type="background" depart="194.36" departLane="random">
        <route edges="-172801188#1.174 -172801130"/>
    </vehicle>
    <vehicle id="-172801188#1.174__3__background.2" type="background" depart="196.26" departLane="random">
        <route edges="-172801188#1.174 -172801130"/>
    </vehicle>
    <vehicle id="172801130.183__3__background.3" type="background" depart="203.16" departLane="random">
        <route edges="172801130.183 -172801188#0"/>
    </vehicle>
    <vehicle id="-172801188#1.174__3__background.3" type="background" depart="204.69" departLane="random">
        <route edges="-172801188#1.174 -172801188#0"/>
    </vehicle>
    <vehicle id="172801188#0.85__3__background.1" type="background" depart="205.80" departLane="random">
        <route edges="172801188#0.85 -172801130"/>
    </vehicle>
    <vehicle id="172801130.183__3__background.4" type="background" depart="205.86" departLane="random">
        <route edges="172801130.183 172801188#1"/>
    </vehicle>
    <vehicle id="-172801188#1.174__3__background.4" type="background" depart="208.54" departLane="random">
        <route edges="-172801188#1.174 -172801130"/>
    </vehicle>
    <vehicle id="-172801188#1.174__3__background.5" type="background" depart="210.51" departLane="random">
        <route edges="-172801188#1.174 -172801130"/>
    </vehicle>
    <vehicle id="172801130.183__3__background.5" type="background" depart="211.85" departLane="random">
        <route edges="172801130.183 -172801188#0"/>
    </vehicle>
    <vehicle id="-172801188#1.174__3__background.6" type="background" depart="211.94" departLane="random">
        <route edges="-172801188#1.174 -172801130"/>
    </vehicle>
    <vehicle id="172801130.183__3__background.6" type="background" depart="215.70" departLane="random">
        <route edges="172801130.183 172801188#1"/>
    </vehicle>
    <vehicle id="-172801188#1.174__3__background.7" type="background" depart="217.85" departLane="random">
        <route edges="-172801188#1.174 -172801130"/>
    </vehicle>
    <vehicle id="172801130.183__3__background.7" type="background" depart="219.52" departLane="random">
        <route edges="172801130.183 -172801188#0"/>
    </vehicle>
    <vehicle id="-172801188#1.174__3__background.8" type="background" depart="219.82" departLane="random">
        <route edges="-172801188#1.174 -172801130"/>
    </vehicle>
    <vehicle id="172801188#0.85__3__background.2" type="background" depart="222.11" departLane="random">
        <route edges="172801188#0.85 -172801130"/>
    </vehicle>
    <vehicle id="172801188#0.85__3__background.3" type="background" depart="222.53" departLane="random">
        <route edges="172801188#0.85 -172801130"/>
    </vehicle>
    <vehicle id="172801188#0.85__3__background.4" type="background" depart="223.32" departLane="random">
        <route edges="172801188#0.85 -172801130"/>
    </vehicle>
    <vehicle id="172801188#0.85__3__background.5" type="background" depart="223.99" departLane="random">
        <route edges="172801188#0.85 172801188#1"/>
    </vehicle>
    <vehicle id="172801188#0.85__3__background.6" type="background" depart="224.08" departLane="random">
        <route edges="172801188#0.85 172801188#1"/>
    </vehicle>
    <vehicle id="172801188#0.85__3__background.7" type="background" depart="225.08" departLane="random">
        <route edges="172801188#0.85 -172801130"/>
    </vehicle>
    <vehicle id="-172801188#1.174__3__background.9" type="background" depart="225.09" departLane="random">
        <route edges="-172801188#1.174 -172801188#0"/>
    </vehicle>
    <vehicle id="172801188#0.85__3__background.8" type="background" depart="227.20" departLane="random">
        <route edges="172801188#0.85 172801188#1"/>
    </vehicle>
    <vehicle id="172801130.183__3__background.8" type="background" depart="230.44" departLane="random">
        <route edges="172801130.183 172801188#1"/>
    </vehicle>
    <vehicle id="172801130.183__3__background.9" type="background" depart="232.24" departLane="random">
        <route edges="172801130.183 172801188#1"/>
    </vehicle>
    <vehicle id="-172801188#1.174__3__background.10" type="background" depart="233.82" departLane="random">
        <route edges="-172801188#1.174 -172801188#0"/>
    </vehicle>
    <vehicle id="-172801188#1.174__3__background.11" type="background" depart="237.22" departLane="random">
        <route edges="-172801188#1.174 -172801130"/>
    </vehicle>
    <vehicle id="172801188#0.85__3__background.9" type="background" depart="238.72" departLane="random">
        <route edges="172801188#0.85 172801188#1"/>
    </vehicle>
    <vehicle id="172801130.183__4__background.0" type="background" depart="240.29" departLane="random">
        <route edges="172801130.183 -172801188#0"/>
    </vehicle>
    <vehicle id="-172801188#1.174__4__background.0" type="background" depart="243.44" departLane="random">
        <route edges="-172801188#1.174 -172801130"/>
    </vehicle>
    <vehicle id="-172801188#1.174__4__background.1" type="background" depart="243.47" departLane="random">
        <route edges="-172801188#1.174 -172801188#0"/>
    </vehicle>
    <vehicle id="-172801188#1.174__4__background.2" type="background" depart="245.34" departLane="random">
        <route edges="-172801188#1.174 -172801188#0"/>
    </vehicle>
    <vehicle id="172801130.183__4__background.1" type="background" depart="248.53" departLane="random">
        <route edges="172801130.183 -172801188#0"/>
    </vehicle>
    <vehicle id="172801188#0.85__4__background.0" type="background" depart="250.58" departLane="random">
        <route edges="172801188#0.85 172801188#1"/>
    </vehicle>
    <vehicle id="-172801188#1.174__4__background.3" type="background" depart="250.71" departLane="random">
        <route edges="-172801188#1.174 -172801188#0"/>
    </vehicle>
    <vehicle id="-172801188#1.174__4__background.4" type="background" depart="250.81" departLane="random">
        <route edges="-172801188#1.174 -172801130"/>
    </vehicle>
    <vehicle id="-172801188#1.174__4__background.5" type="background" depart="253.15" departLane="random">
        <route edges="-172801188#1.174 -172801188#0"/>
    </vehicle>
    <vehicle id="-172801188#1.174__4__background.6" type="background" depart="253.62" departLane="random">
        <route edges="-172801188#1.174 -172801188#0"/>
    </vehicle>
    <vehicle id="172801130.183__4__background.2" type="background" depart="254.15" departLane="random">
        <route edges="172801130.183 -172801188#0"/>
    </vehicle>
    <vehicle id="172801130.183__4__background.3" type="background" depart="257.86" departLane="random">
        <route edges="172801130.183 172801188#1"/>
    </vehicle>
    <vehicle id="172801130.183__4__background.4" type="background" depart="259.56" departLane="random">
        <route edges="172801130.183 -172801188#0"/>
    </vehicle>
    <vehicle id="172801188#0.85__4__background.1" type="background" depart="260.24" departLane="random">
        <route edges="172801188#0.85 172801188#1"/>
    </vehicle>
    <vehicle id="172801130.183__4__background.5" type="background" depart="264.00" departLane="random">
        <route edges="172801130.183 172801188#1"/>
    </vehicle>
    <vehicle id="172801130.183__4__background.6" type="background" depart="265.38" departLane="random">
        <route edges="172801130.183 172801188#1"/>
    </vehicle>
    <vehicle id="172801188#0.85__4__background.2" type="background" depart="267.01" departLane="random">
        <route edges="172801188#0.85 -172801130"/>
    </vehicle>
    <vehicle id="172801188#0.85__4__background.3" type="background" depart="268.11" departLane="random">
        <route edges="172801188#0.85 -172801130"/>
    </vehicle>
    <vehicle id="172801188#0.85__4__background.4" type="background" depart="270.61" departLane="random">
        <route edges="172801188#0.85 -172801130"/>
    </vehicle>
    <vehicle id="-172801188#1.174__4__background.7" type="background" depart="270.73" departLane="random">
        <route edges="-172801188#1.174 -172801130"/>
    </vehicle>
    <vehicle id="172801188#0.85__4__background.5" type="background" depart="271.28" departLane="random">
        <route edges="172801188#0.85 -172801130"/>
    </vehicle>
    <vehicle id="172801188#0.85__4__background.6" type="background" depart="271.50" departLane="random">
        <route edges="172801188#0.85 -172801130"/>
    </vehicle>
    <vehicle id="172801130.183__4__background.7" type="background" depart="271.76" departLane="random">
        <route edges="172801130.183 -172801188#0"/>
    </vehicle>
    <vehicle id="172801130.183__4__background.8" type="background" depart="272.29" departLane="random">
        <route edges="172801130.183 -172801188#0"/>
    </vehicle>
    <vehicle id="-172801188#1.174__4__background.8" type="background" depart="272.85" departLane="random">
        <route edges="-172801188#1.174 -172801188#0"/>
    </vehicle>
    <vehicle id="172801130.183__4__background.9" type="background" depart="273.35" departLane="random">
        <route edges="172801130.183 172801188#1"/>
    </vehicle>
    <vehicle id="-172801188#1.174__4__background.9" type="background" depart="273.56" departLane="random">
        <route edges="-172801188#1.174 -172801130"/>
    </vehicle>
    <vehicle id="172801188#0.85__4__background.7" type="background" depart="273.57" departLane="random">
        <route edges="172801188#0.85 -172801130"/>
    </vehicle>
    <vehicle id="172801130.183__4__background.10" type="background" depart="275.15" departLane="random">
        <route edges="172801130.183 -172801188#0"/>
    </vehicle>
    <vehicle id="172801188#0.85__4__background.8" type="background" depart="279.97" departLane="random">
        <route edges="172801188#0.85 -172801130"/>
    </vehicle>
    <vehicle id="172801188#0.85__4__background.9" type="background" depart="281.64" departLane="random">
        <route edges="172801188#0.85 -172801130"/>
    </vehicle>
    <vehicle id="172801188#0.85__4__background.10" type="background" depart="282.09" departLane="random">
        <route edges="172801188#0.85 172801188#1"/>
    </vehicle>
    <vehicle id="-172801188#1.174__4__background.10" type="background" depart="282.32" departLane="random">
        <route edges="-172801188#1.174 -172801130"/>
    </vehicle>
    <vehicle id="172801130.183__4__background.11" type="background" depart="282.62" departLane="random">
        <route edges="172801130.183 -172801188#0"/>
    </vehicle>
    <vehicle id="-172801188#1.174__4__background.11" type="background" depart="284.33" departLane="random">
        <route edges="-172801188#1.174 -172801130"/>
    </vehicle>
    <vehicle id="-172801188#1.174__4__background.12" type="background" depart="285.20" departLane="random">
        <route edges="-172801188#1.174 -172801130"/>
    </vehicle>
    <vehicle id="-172801188#1.174__4__background.13" type="background" depart="285.79" departLane="random">
        <route edges="-172801188#1.174 -172801188#0"/>
    </vehicle>
    <vehicle id="172801188#0.85__4__background.11" type="background" depart="286.09" departLane="random">
        <route edges="172801188#0.85 -172801130"/>
    </vehicle>
    <vehicle id="172801130.183__4__background.12" type="background" depart="289.49" departLane="random">
        <route edges="172801130.183 172801188#1"/>
    </vehicle>
    <vehicle id="172801188#0.85__4__background.12" type="background" depart="290.50" departLane="random">
        <route edges="172801188#0.85 -172801130"/>
    </vehicle>
    <vehicle id="-172801188#1.174__4__background.14" type="background" depart="293.97" departLane="random">
        <route edges="-172801188#1.174 -172801188#0"/>
    </vehicle>
    <vehicle id="-172801188#1.174__5__background.0" type="background" depart="302.73" departLane="random">
        <route edges="-172801188#1.174 -172801130"/>
    </vehicle>
    <vehicle id="172801130.183__5__background.0" type="background" depart="304.98" departLane="random">
        <route edges="172801130.183 172801188#1"/>
    </vehicle>
    <vehicle id="172801188#0.85__5__background.0" type="background" depart="305.02" departLane="random">
        <route edges="172801188#0.85 172801188#1"/>
    </vehicle>
    <vehicle id="172801130.183__5__background.1" type="background" depart="306.85" departLane="random">
        <route edges="172801130.183 172801188#1"/>
    </vehicle>
    <vehicle id="172801130.183__5__background.2" type="background" depart="307.40" departLane="random">
        <route edges="172801130.183 172801188#1"/>
    </vehicle>
    <vehicle id="172801130.183__5__background.3" type="background" depart="309.68" departLane="random">
        <route edges="172801130.183 -172801188#0"/>
    </vehicle>
    <vehicle id="-172801188#1.174__5__background.1" type="background" depart="310.24" departLane="random">
        <route edges="-172801188#1.174 -172801130"/>
    </vehicle>
    <vehicle id="172801130.183__5__background.4" type="background" depart="313.00" departLane="random">
        <route edges="172801130.183 172801188#1"/>
    </vehicle>
    <vehicle id="172801188#0.85__5__background.1" type="background" depart="313.90" departLane="random">
        <route edges="172801188#0.85 172801188#1"/>
    </vehicle>
    <vehicle id="-172801188#1.174__5__background.2" type="background" depart="317.80" departLane="random">
        <route edges="-172801188#1.174 -172801130"/>
    </vehicle>