<?xml version="1.0" encoding="UTF-8"?>

<!-- generated on 2025-06-24 09:07:38 by Eclipse SUMO polyconvert Version 1.22.0
<polyconvertConfiguration xmlns:xsi="http://www.w3.org/2001/XMLSchema-instance" xsi:noNamespaceSchemaLocation="http://sumo.dlr.de/xsd/polyconvertConfiguration.xsd">

    <input>
        <net-file value="/home/china/桌面/tscvla/sim_envs/Beijing_Gaojiaoyuan/env/map.net.xml"/>
        <osm-files value="/home/china/桌面/tscvla/sim_envs/Beijing_Gaojiaoyuan/map.osm"/>
        <osm.merge-relations value="1"/>
        <type-file value="/home/china/桌面/TransSimHub/tshub/sumo_tools/./osm_build_type/poly.typ.xml"/>
    </input>

    <output>
        <output-file value="/home/china/桌面/tscvla/sim_envs/Beijing_Gaojiaoyuan/env/map.poly.xml"/>
    </output>

    <building_defaults>
        <discard value="true"/>
    </building_defaults>

</polyconvertConfiguration>
-->

<additional xmlns:xsi="http://www.w3.org/2001/XMLSchema-instance" xsi:noNamespaceSchemaLocation="http://sumo.dlr.de/xsd/additional_file.xsd">
    <location netOffset="-437033.87,-4444200.36" convBoundary="-298.56,-40.71,1910.19,2571.81" origBoundary="116.257172,40.145480,116.283121,40.168976" projParameter="+proj=utm +zone=50 +ellps=WGS84 +datum=WGS84 +units=m +no_defs"/>

    <poly id="353022942" type="amenity" color="237,199,199" fill="1" layer="-1.00" shape="-298.557612,976.968589 -136.116663,553.725160 -112.201877,537.985453 -105.402160,518.858567 -99.170573,500.036129 -110.474620,477.463647 7.611739,167.416557 31.453598,156.040341 392.220454,267.203808 402.139184,287.213210 396.141432,304.612438 412.479104,309.749993 431.310573,315.677293 450.142012,321.604640 458.742094,324.308662 465.166951,307.039160 485.840586,297.766282 595.713160,334.611873 604.292511,342.044922 617.847301,346.484333 623.910041,358.633528 618.161137,376.308029 620.007404,377.080935 625.787999,378.764951 631.835101,380.746482 633.115922,381.124441 638.639804,365.083536 650.301382,357.883369 665.846153,364.004813 678.264473,363.880398 831.104472,424.097013 845.201461,440.664905 892.231695,457.584240 898.166435,474.962895 790.627792,811.937976 770.995135,811.977211 765.477048,826.641556 762.659626,834.124064 759.683945,842.040782 754.099137,856.872189 767.558332,872.601562 762.054462,900.386258 705.312363,1077.546298 700.462838,1092.682512 688.031947,1131.491311 642.536240,1273.538159 616.269260,1292.092156 401.947383,1222.131631 394.027331,1205.757673 375.120344,1198.676700 349.753422,1190.095199 333.838179,1197.697387 47.196032,1104.779980 17.043069,1095.340262 -287.946326,1000.234811 -298.557612,976.968589"/>
    <poly id="387284608" type="amenity" color="237,199,199" fill="1" layer="-1.00" shape="843.309332,834.815761 959.142029,473.397436 1540.259988,685.300939 1424.210686,1023.035036 843.309332,834.815761"/>
    <poly id="439440010" type="leisure" color="207,245,201" fill="1" layer="-2.00" shape="722.231805,645.219947 739.612956,645.820720 742.849088,646.782030 753.092169,654.612270 764.823725,662.186084 783.221586,665.242847 805.513388,659.132191 823.022042,644.147406 831.065284,625.777106 831.850236,601.039383 835.496902,560.704566 835.499174,558.906313 835.505723,555.553995 835.509265,551.835394 835.565118,523.362889 831.842292,512.925952 825.969674,503.128281 817.296617,494.607936 808.004105,487.413613 794.395715,483.662521 777.513643,484.755847 765.379324,488.318836 753.004125,492.627538 732.649676,493.039097 728.521835,534.876455 714.868605,534.988751 710.191002,600.063403 724.654311,608.358398 722.231805,645.219947"/>
    <poly id="439440013" type="leisure" color="207,245,201" fill="1" layer="-2.00" shape="643.890008,423.383037 645.090394,419.166170 777.776811,461.842843 775.855288,469.528881 716.611606,450.723776 715.090568,447.028815 643.890008,423.383037"/>
    <poly id="443771399" type="residential" color="235,235,227" fill="1" layer="-3.00" shape="987.688152,431.060516 1044.571830,242.690637 1296.649092,327.180705 1232.444501,514.687003 987.688152,431.060516"/>
    <poly id="443771400" type="building" color="255,230,230" fill="1" layer="-1.00" shape="1169.179183,395.398862 1173.671308,383.262964 1254.998475,413.191533 1250.497632,425.316351 1169.179183,395.398862"/>
    <poly id="443771401" type="building" color="255,230,230" fill="1" layer="-1.00" shape="1116.465560,463.685014 1120.637162,451.951308 1222.285015,487.829695 1218.104760,499.563414 1116.465560,463.685014"/>
    <poly id="443771402" type="building" color="255,230,230" fill="1" layer="-1.00" shape="1181.714785,312.611124 1187.066624,298.303681 1271.370138,329.606768 1266.018074,343.903052 1181.714785,312.611124"/>
    <poly id="443771403" type="building" color="255,230,230" fill="1" layer="-1.00" shape="1055.955430,269.126994 1061.034956,254.877187 1169.315661,293.187104 1164.236051,307.447937 1055.955430,269.126994"/>
    <poly id="443771404" type="building" color="255,230,230" fill="1" layer="-1.00" shape="1021.337971,429.441893 1025.352794,418.342127 1107.127183,447.721543 1103.103740,458.821334 1021.337971,429.441893"/>
    <poly id="443771405" type="building" color="255,230,230" fill="1" layer="-1.00" shape="1060.516853,359.201129 1065.399710,345.907548 1152.133156,377.489141 1147.250170,390.782665 1060.516853,359.201129"/>
    <poly id="443771406" type="building" color="255,230,230" fill="1" layer="-1.00" shape="1046.498072,288.640816 1064.249860,293.845901 1019.463050,433.486614 1008.705944,430.499914 1004.553867,425.871820 1046.498072,288.640816"/>
    <poly id="607421941" type="leisure" color="207,245,201" fill="1" layer="-2.00" shape="849.354417,524.259813 859.675531,518.758201 851.388766,503.330316 841.067546,508.820839 849.354417,524.259813"/>
    <poly id="607421941#1" type="sport" color="79,230,125" fill="1" layer="-2.00" shape="849.354417,524.259813 859.675531,518.758201 851.388766,503.330316 841.067546,508.820839 849.354417,524.259813"/>
    <poly id="683142068" type="building" color="255,230,230" fill="1" layer="-1.00" shape="1081.954403,599.533951 1190.912485,637.960663 1195.650220,624.623944 1086.691974,586.197164 1081.954403,599.533951"/>
    <poly id="683142070" type="leisure" color="207,245,201" fill="1" layer="-2.00" shape="911.915525,729.600014 929.800402,737.645333 934.260027,746.555547 939.517445,753.039378 948.101594,760.117559 955.266013,764.410130 963.399333,767.407144 973.689577,768.566062 983.499533,767.242479 995.727094,763.667968 1006.294169,754.945474 1018.235006,740.273136 1054.239547,645.593399 1053.476024,627.228800 1049.031674,617.052970 1042.973673,607.456456 1032.380428,598.440973 1017.123759,592.038926 1003.533661,590.485155 981.186586,596.129464 968.367614,593.048711 965.228518,600.811275 951.561601,605.474345 911.915525,729.600014"/>
    <poly id="747007518" type="landuse" color="194,194,130" fill="1" layer="-3.00" shape="674.272406,320.766721 795.378157,-40.708313 1032.498372,32.018818 908.854543,399.937732 674.272406,320.766721"/>
    <poly id="992687691" type="leisure" color="207,245,201" fill="1" layer="-2.00" shape="813.879822,634.487596 821.752895,530.047623 755.570055,521.888812 746.883639,628.822006 813.879822,634.487596"/>
    <poly id="992687691#1" type="sport" color="79,230,125" fill="1" layer="-2.00" shape="813.879822,634.487596 821.752895,530.047623 755.570055,521.888812 746.883639,628.822006 813.879822,634.487596"/>
</additional>
