<?xml version="1.0" encoding="UTF-8"?>

<!-- generated on 2026-04-13T16:16:39.669910+08:00 by Eclipse SUMO jtrrouter 1.26.0
<jtrrouterConfiguration xmlns:xsi="http://www.w3.org/2001/XMLSchema-instance" xsi:noNamespaceSchemaLocation="http://sumo.dlr.de/xsd/jtrrouterConfiguration.xsd">

    <input>
        <net-file value="/home/wmn/Coding_Project/TrafficAlpha/SingleTSC_TranSimHub/exp_junction/Hongkong_YMT/./networks/normal.net.xml"/>
        <route-files value="/home/wmn/Coding_Project/TrafficAlpha/SingleTSC_TranSimHub/exp_junction/Hongkong_YMT/./testflow.trip.xml"/>
        <turn-ratio-files value="/home/wmn/Coding_Project/TrafficAlpha/SingleTSC_TranSimHub/exp_junction/Hongkong_YMT/./testflow.turndefs.xml"/>
    </input>

    <output>
        <output-file value="/home/wmn/Coding_Project/TrafficAlpha/SingleTSC_TranSimHub/exp_junction/Hongkong_YMT/./routes/low_density.rou.xml"/>
    </output>

    <processing>
        <randomize-flows value="True"/>
        <accept-all-destinations value="True"/>
    </processing>

    <defaults>
        <departlane value="random"/>
    </defaults>

    <report>
        <no-warnings value="true"/>
    </report>

    <random_number>
        <seed value="777"/>
    </random_number>

</jtrrouterConfiguration>
-->

<routes xmlns:xsi="http://www.w3.org/2001/XMLSchema-instance" xsi:noNamespaceSchemaLocation="http://sumo.dlr.de/xsd/routes_file.xsd">
    <vType id="background" length="5.00" color="220,220,220" tau="1.0"/>
    <vehicle id="1200878753#0__0__background.0" type="background" depart="3.58" departLane="random">
        <route edges="1200878753#0 102640412#0 102640412#0.25 102640412#2"/>
    </vehicle>
    <vehicle id="960661806#0__0__background.0" type="background" depart="5.68" departLane="random">
        <route edges="960661806#0 102640426#0"/>
    </vehicle>
    <vehicle id="30658263#0__0__background.0" type="background" depart="6.54" departLane="random">
        <route edges="30658263#0 102640453#0"/>
    </vehicle>
    <vehicle id="30658263#0__0__background.1" type="background" depart="6.80" departLane="random">
        <route edges="30658263#0 102640432#0 102640429"/>
    </vehicle>
    <vehicle id="960661806#0__0__background.1" type="background" depart="7.71" departLane="random">
        <route edges="960661806#0 102640426#0"/>
    </vehicle>
    <vehicle id="960661806#0__0__background.2" type="background" depart="10.82" departLane="random">
        <route edges="960661806#0 102640426#0"/>
    </vehicle>
    <vehicle id="1200878753#0__0__background.1" type="background" depart="10.88" departLane="random">
        <route edges="1200878753#0 102640412#0 102640412#0.25 102640412#2"/>
    </vehicle>
    <vehicle id="1200878753#0__0__background.2" type="background" depart="11.03" departLane="random">
        <route edges="1200878753#0 102640426#0"/>
    </vehicle>
    <vehicle id="30658263#0__0__background.2" type="background" depart="12.32" departLane="random">
        <route edges="30658263#0 102640453#0"/>
    </vehicle>
    <vehicle id="960661806#0__0__background.3" type="background" depart="15.68" departLane="random">
        <route edges="960661806#0 102640426#0"/>
    </vehicle>
    <vehicle id="102454134#0__0__background.0" type="background" depart="15.93" departLane="random">
        <route edges="102454134#0 102640432#0 102640432#3"/>
    </vehicle>
    <vehicle id="1200878753#0__0__background.3" type="background" depart="17.37" departLane="random">
        <route edges="1200878753#0 102640412#0 102640412#0.25 102640412#2"/>
    </vehicle>
    <vehicle id="30658263#0__0__background.3" type="background" depart="19.28" departLane="random">
        <route edges="30658263#0 102640453#0"/>
    </vehicle>
    <vehicle id="30658263#0__0__background.4" type="background" depart="20.32" departLane="random">
        <route edges="30658263#0 102640453#0"/>
    </vehicle>
    <vehicle id="1200878753#0__0__background.4" type="background" depart="25.90" departLane="random">
        <route edges="1200878753#0 102640412#0 102640412#0.25 102640412#2"/>
    </vehicle>
    <vehicle id="102454134#0__0__background.1" type="background" depart="26.70" departLane="random">
        <route edges="102454134#0 102640432#0 102640429"/>
    </vehicle>
    <vehicle id="30658263#0__0__background.5" type="background" depart="26.95" departLane="random">
        <route edges="30658263#0 102640453#0"/>
    </vehicle>
    <vehicle id="1200878753#0__0__background.5" type="background" depart="28.79" departLane="random">
        <route edges="1200878753#0 102640412#0 102640412#0.25 102640412#2"/>
    </vehicle>
    <vehicle id="960661806#0__0__background.4" type="background" depart="35.91" departLane="random">
        <route edges="960661806#0 102640426#0"/>
    </vehicle>
    <vehicle id="102454134#0__0__background.2" type="background" depart="36.79" departLane="random">
        <route edges="102454134#0 102640432#0 102640429"/>
    </vehicle>
    <vehicle id="102454134#0__0__background.3" type="background" depart="40.54" departLane="random">
        <route edges="102454134#0 102640432#0 102640432#3"/>
    </vehicle>
    <vehicle id="30658263#0__0__background.6" type="background" depart="40.85" departLane="random">
        <route edges="30658263#0 102640453#0"/>
    </vehicle>
    <vehicle id="30658263#0__0__background.7" type="background" depart="41.30" departLane="random">
        <route edges="30658263#0 102640453#0"/>
    </vehicle>
    <vehicle id="1200878753#0__0__background.6" type="background" depart="44.46" departLane="random">
        <route edges="1200878753#0 102640412#0 102640412#0.25 102640412#2"/>
    </vehicle>
    <vehicle id="102454134#0__0__background.4" type="background" depart="47.92" departLane="random">
        <route edges="102454134#0 102640432#0 102640432#3"/>
    </vehicle>
    <vehicle id="960661806#0__0__background.5" type="background" depart="48.23" departLane="random">
        <route edges="960661806#0 102640426#0"/>
    </vehicle>
    <vehicle id="102454134#0__0__background.5" type="background" depart="52.13" departLane="random">
        <route edges="102454134#0 102640432#0 102640432#3"/>
    </vehicle>
    <vehicle id="1200878753#0__0__background.7" type="background" depart="54.94" departLane="random">
        <route edges="1200878753#0 102640426#0"/>
    </vehicle>
    <vehicle id="960661806#0__0__background.6" type="background" depart="56.15" departLane="random">
        <route edges="960661806#0 102640426#0"/>
    </vehicle>
    <vehicle id="960661806#0__1__background.0" type="background" depart="60.03" departLane="random">
        <route edges="960661806#0 102640426#0"/>
    </vehicle>
    <vehicle id="102454134#0__1__background.0" type="background" depart="60.84" departLane="random">
        <route edges="102454134#0 102640432#0 102640429"/>
    </vehicle>
    <vehicle id="1200878753#0__1__background.0" type="background" depart="64.16" departLane="random">
        <route edges="1200878753#0 102640412#0 102640412#0.25 102640412#2"/>
    </vehicle>
    <vehicle id="30658263#0__1__background.0" type="background" depart="64.54" departLane="random">
        <route edges="30658263#0 102640453#0"/>
    </vehicle>
    <vehicle id="1200878753#0__1__background.1" type="background" depart="65.99" departLane="random">
        <route edges="1200878753#0 102640412#0 102640412#0.25 102640412#2"/>
    </vehicle>
    <vehicle id="1200878753#0__1__background.2" type="background" depart="67.95" departLane="random">
        <route edges="1200878753#0 102640426#0"/>
    </vehicle>
    <vehicle id="960661806#0__1__background.1" type="background" depart="69.31" departLane="random">
        <route edges="960661806#0 102640426#0"/>
    </vehicle>
    <vehicle id="960661806#0__1__background.2" type="background" depart="71.26" departLane="random">
        <route edges="960661806#0 102640426#0"/>
    </vehicle>
    <vehicle id="960661806#0__1__background.3" type="background" depart="75.08" departLane="random">
        <route edges="960661806#0 102640426#0"/>
    </vehicle>
    <vehicle id="102454134#0__1__background.1" type="background" depart="76.75" departLane="random">
        <route edges="102454134#0 102640432#0 102640432#3"/>
    </vehicle>
    <vehicle id="102454134#0__1__background.2" type="background" depart="83.35" departLane="random">
        <route edges="102454134#0 102640432#0 102640432#3"/>
    </vehicle>
    <vehicle id="1200878753#0__1__background.3" type="background" depart="85.22" departLane="random">
        <route edges="1200878753#0 102640412#0 102640412#0.25 102640412#2"/>
    </vehicle>
    <vehicle id="30658263#0__1__background.1" type="background" depart="86.23" departLane="random">
        <route edges="30658263#0 102640453#0"/>
    </vehicle>
    <vehicle id="30658263#0__1__background.2" type="background" depart="86.40" departLane="random">
        <route edges="30658263#0 102640453#0"/>
    </vehicle>
    <vehicle id="1200878753#0__1__background.4" type="background" depart="88.29" departLane="random">
        <route edges="1200878753#0 102640412#0 102640412#0.25 102640412#2"/>
    </vehicle>
    <vehicle id="30658263#0__1__background.3" type="background" depart="90.89" departLane="random">
        <route edges="30658263#0 102640453#0"/>
    </vehicle>
    <vehicle id="30658263#0__1__background.4" type="background" depart="91.08" departLane="random">
        <route edges="30658263#0 102640453#0"/>
    </vehicle>
    <vehicle id="1200878753#0__1__background.5" type="background" depart="93.66" departLane="random">
        <route edges="1200878753#0 102640426#0"/>
    </vehicle>
    <vehicle id="30658263#0__1__background.5" type="background" depart="99.15" departLane="random">
        <route edges="30658263#0 102640453#0"/>
    </vehicle>
    <vehicle id="1200878753#0__1__background.6" type="background" depart="103.19" departLane="random">
        <route edges="1200878753#0 102640412#0 102640412#0.25 102640412#2"/>
    </vehicle>
    <vehicle id="102454134#0__1__background.3" type="background" depart="106.02" departLane="random">
        <route edges="102454134#0 102640432#0 102640432#3"/>
    </vehicle>
    <vehicle id="1200878753#0__1__background.7" type="background" depart="106.02" departLane="random">
        <route edges="1200878753#0 102640412#0 102640412#0.25 102640412#2"/>
    </vehicle>
    <vehicle id="30658263#0__1__background.6" type="background" depart="108.14" departLane="random">
        <route edges="30658263#0 102640432#0 102640432#3"/>
    </vehicle>
    <vehicle id="960661806#0__1__background.4" type="background" depart="109.14" departLane="random">
        <route edges="960661806#0 102640426#0"/>
    </vehicle>
    <vehicle id="102454134#0__1__background.4" type="background" depart="111.52" departLane="random">
        <route edges="102454134#0 102640432#0 102640432#3"/>
    </vehicle>
    <vehicle id="102454134#0__1__background.5" type="background" depart="113.45" departLane="random">
        <route edges="102454134#0 102640432#0 102640432#3"/>
    </vehicle>
    <vehicle id="960661806#0__1__background.5" type="background" depart="114.52" departLane="random">
        <route edges="960661806#0 102640426#0"/>
    </vehicle>
    <vehicle id="960661806#0__1__background.6" type="background" depart="117.89" departLane="random">
        <route edges="960661806#0 102640426#0"/>
    </vehicle>
    <vehicle id="30658263#0__1__background.7" type="background" depart="119.78" departLane="random">
        <route edges="30658263#0 102640453#0"/>
    </vehicle>
    <vehicle id="1200878753#0__2__background.0" type="background" depart="121.54" departLane="random">
        <route edges="1200878753#0 102640412#0 102640412#0.25 102640412#2"/>
    </vehicle>
    <vehicle id="30658263#0__2__background.0" type="background" depart="121.72" departLane="random">
        <route edges="30658263#0 102640453#0"/>
    </vehicle>
    <vehicle id="1200878753#0__2__background.1" type="background" depart="123.43" departLane="random">
        <route edges="1200878753#0 102640412#0 102640412#0.25 102640412#2"/>
    </vehicle>
    <vehicle id="30658263#0__2__background.1" type="background" depart="123.47" departLane="random">
        <route edges="30658263#0 102640432#0 102640432#3"/>
    </vehicle>
    <vehicle id="30658263#0__2__background.2" type="background" depart="130.17" departLane="random">
        <route edges="30658263#0 102640453#0"/>
    </vehicle>
    <vehicle id="30658263#0__2__background.3" type="background" depart="132.29" departLane="random">
        <route edges="30658263#0 102640453#0"/>
    </vehicle>
    <vehicle id="1200878753#0__2__background.2" type="background" depart="132.41" departLane="random">
        <route edges="1200878753#0 102640412#0 102640412#0.25 102640412#2"/>
    </vehicle>
    <vehicle id="1200878753#0__2__background.3" type="background" depart="133.67" departLane="random">
        <route edges="1200878753#0 102640412#0 102640412#0.25 102640412#2"/>
    </vehicle>
    <vehicle id="960661806#0__2__background.0" type="background" depart="134.01" departLane="random">
        <route edges="960661806#0 102640426#0"/>
    </vehicle>
    <vehicle id="102454134#0__2__background.0" type="background" depart="135.59" departLane="random">
        <route edges="102454134#0 102640432#0 102640432#3"/>
    </vehicle>
    <vehicle id="1200878753#0__2__background.4" type="background" depart="136.46" departLane="random">
        <route edges="1200878753#0 102640426#0"/>
    </vehicle>
    <vehicle id="1200878753#0__2__background.5" type="background" depart="136.73" departLane="random">
        <route edges="1200878753#0 102640412#0 102640412#0.25 102640412#2"/>
    </vehicle>
    <vehicle id="102454134#0__2__background.1" type="background" depart="138.84" departLane="random">
        <route edges="102454134#0 102640432#0 102640432#3"/>
    </vehicle>
    <vehicle id="1200878753#0__2__background.6" type="background" depart="140.50" departLane="random">
        <route edges="1200878753#0 102640412#0 102640412#0.25 102640412#2"/>
    </vehicle>
    <vehicle id="960661806#0__2__background.1" type="background" depart="143.16" departLane="random">
        <route edges="960661806#0 102640426#0"/>
    </vehicle>
    <vehicle id="960661806#0__2__background.2" type="background" depart="145.86" departLane="random">
        <route edges="960661806#0 102640426#0"/>
    </vehicle>
    <vehicle id="30658263#0__2__background.4" type="background" depart="147.35" departLane="random">
        <route edges="30658263#0 102640432#0 102640429"/>
    </vehicle>
    <vehicle id="102454134#0__2__background.2" type="background" depart="149.83" departLane="random">
        <route edges="102454134#0 102640432#0 102640429"/>
    </vehicle>
    <vehicle id="960661806#0__2__background.3" type="background" depart="151.85" departLane="random">
        <route edges="960661806#0 102640426#0"/>
    </vehicle>
    <vehicle id="960661806#0__2__background.4" type="background" depart="155.70" departLane="random">
        <route edges="960661806#0 102640426#0"/>
    </vehicle>
    <vehicle id="30658263#0__2__background.5" type="background" depart="157.85" departLane="random">
        <route edges="30658263#0 102640453#0"/>
    </vehicle>
    <vehicle id="1200878753#0__2__background.7" type="background" depart="162.87" departLane="random">
        <route edges="1200878753#0 102640426#0"/>
    </vehicle>
    <vehicle id="102454134#0__2__background.3" type="background" depart="163.28" departLane="random">
        <route edges="102454134#0 102640432#0 102640429"/>
    </vehicle>
    <vehicle id="30658263#0__2__background.6" type="background" depart="164.98" departLane="random">
        <route edges="30658263#0 102640453#0"/>
    </vehicle>
    <vehicle id="1200878753#0__2__background.8" type="background" depart="165.90" departLane="random">
        <route edges="1200878753#0 102640412#0 102640412#0.25 102640412#2"/>
    </vehicle>
    <vehicle id="960661806#0__2__background.5" type="background" depart="167.92" departLane="random">
        <route edges="960661806#0 102640426#0"/>
    </vehicle>
    <vehicle id="960661806#0__2__background.6" type="background" depart="170.44" departLane="random">
        <route edges="960661806#0 102640426#0"/>
    </vehicle>
    <vehicle id="30658263#0__2__background.7" type="background" depart="170.49" departLane="random">
        <route edges="30658263#0 102640453#0"/>
    </vehicle>
    <vehicle id="102454134#0__2__background.4" type="background" depart="171.42" departLane="random">
        <route edges="102454134#0 102640432#0 102640432#3"/>
    </vehicle>
    <vehicle id="960661806#0__2__background.7" type="background" depart="172.24" departLane="random">
        <route edges="960661806#0 102640426#0"/>
    </vehicle>
    <vehicle id="102454134#0__2__background.5" type="background" depart="173.47" departLane="random">
        <route edges="102454134#0 102640432#0 102640432#3"/>
    </vehicle>
    <vehicle id="102454134#0__3__background.0" type="background" depart="180.09" departLane="random">
        <route edges="102454134#0 102640432#0 102640432#3"/>
    </vehicle>
    <vehicle id="102454134#0__3__background.1" type="background" depart="180.19" departLane="random">
        <route edges="102454134#0 102640432#0 102640432#3"/>
    </vehicle>
    <vehicle id="102454134#0__3__background.2" type="background" depart="184.84" departLane="random">
        <route edges="102454134#0 102640432#0 102640432#3"/>
    </vehicle>
    <vehicle id="960661806#0__3__background.0" type="background" depart="188.46" departLane="random">
        <route edges="960661806#0 102640426#0"/>
    </vehicle>
    <vehicle id="960661806#0__3__background.1" type="background" depart="188.53" departLane="random">
        <route edges="960661806#0 102640426#0"/>
    </vehicle>
    <vehicle id="960661806#0__3__background.2" type="background" depart="194.15" departLane="random">
        <route edges="960661806#0 102640426#0"/>
    </vehicle>
    <vehicle id="30658263#0__3__background.0" type="background" depart="194.36" departLane="random">
        <route edges="30658263#0 102640453#0"/>
    </vehicle>
    <vehicle id="30658263#0__3__background.1" type="background" depart="196.26" departLane="random">
        <route edges="30658263#0 102640453#0"/>
    </vehicle>
    <vehicle id="960661806#0__3__background.3" type="background" depart="199.56" departLane="random">
        <route edges="960661806#0 102640426#0"/>
    </vehicle>
    <vehicle id="1200878753#0__3__background.0" type="background" depart="204.69" departLane="random">
        <route edges="1200878753#0 102640426#0"/>
    </vehicle>
    <vehicle id="102454134#0__3__background.3" type="background" depart="205.80" departLane="random">
        <route edges="102454134#0 102640432#0 102640432#3"/>
    </vehicle>
    <vehicle id="960661806#0__3__background.4" type="background" depart="208.54" departLane="random">
        <route edges="960661806#0 102640426#0"/>
    </vehicle>
    <vehicle id="30658263#0__3__background.2" type="background" depart="210.51" departLane="random">
        <route edges="30658263#0 102640432#0 102640432#3"/>
    </vehicle>
    <vehicle id="960661806#0__3__background.5" type="background" depart="211.76" departLane="random">
        <route edges="960661806#0 102640426#0"/>
    </vehicle>
    <vehicle id="30658263#0__3__background.3" type="background" depart="211.94" departLane="random">
        <route edges="30658263#0 102640432#0 102640432#3"/>
    </vehicle>
    <vehicle id="960661806#0__3__background.6" type="background" depart="212.29" departLane="random">
        <route edges="960661806#0 102640426#0"/>
    </vehicle>
    <vehicle id="30658263#0__3__background.4" type="background" depart="217.85" departLane="random">
        <route edges="30658263#0 102640453#0"/>
    </vehicle>
    <vehicle id="102454134#0__3__background.4" type="background" depart="219.52" departLane="random">
        <route edges="102454134#0 102640432#0 102640429"/>
    </vehicle>
    <vehicle id="1200878753#0__3__background.1" type="background" depart="219.82" departLane="random">
        <route edges="1200878753#0 102640412#0 102640412#0.25 102640412#2"/>
    </vehicle>
    <vehicle id="1200878753#0__3__background.2" type="background" depart="222.11" departLane="random">
        <route edges="1200878753#0 102640412#0 102640412#0.25 102640412#2"/>
    </vehicle>
    <vehicle id="1200878753#0__3__background.3" type="background" depart="222.53" departLane="random">
        <route edges="1200878753#0 102640412#0 102640412#0.25 102640412#2"/>
    </vehicle>
    <vehicle id="1200878753#0__3__background.4" type="background" depart="223.32" departLane="random">
        <route edges="1200878753#0 102640412#0 102640412#0.25 102640412#2"/>
    </vehicle>
    <vehicle id="1200878753#0__3__background.5" type="background" depart="223.99" departLane="random">
        <route edges="1200878753#0 102640412#0 102640412#0.25 102640412#2"/>
    </vehicle>
    <vehicle id="1200878753#0__3__background.6" type="background" depart="224.08" departLane="random">
        <route edges="1200878753#0 102640426#0"/>
    </vehicle>
    <vehicle id="1200878753#0__3__background.7" type="background" depart="225.08" departLane="random">
        <route edges="1200878753#0 102640426#0"/>
    </vehicle>
    <vehicle id="30658263#0__3__background.5" type="background" depart="225.09" departLane="random">
        <route edges="30658263#0 102640453#0"/>
    </vehicle>
    <vehicle id="1200878753#0__3__background.8" type="background" depart="227.20" departLane="random">
        <route edges="1200878753#0 102640412#0 102640412#0.25 102640412#2"/>
    </vehicle>
    <vehicle id="960661806#0__3__background.7" type="background" depart="229.49" departLane="random">
        <route edges="960661806#0 102640426#0"/>
    </vehicle>
    <vehicle id="30658263#0__3__background.6" type="background" depart="233.82" departLane="random">
        <route edges="30658263#0 102640453#0"/>
    </vehicle>
    <vehicle id="30658263#0__3__background.7" type="background" depart="237.22" departLane="random">
        <route edges="30658263#0 102640453#0"/>
    </vehicle>
    <vehicle id="102454134#0__3__background.5" type="background" depart="238.72" departLane="random">
        <route edges="102454134#0 102640432#0 102640432#3"/>
    </vehicle>
    <vehicle id="102454134#0__4__background.0" type="background" depart="240.29" departLane="random">
        <route edges="102454134#0 102640432#0 102640429"/>
    </vehicle>
    <vehicle id="30658263#0__4__background.0" type="background" depart="242.06" departLane="random">
        <route edges="30658263#0 102640432#0 102640432#3"/>
    </vehicle>
    <vehicle id="30658263#0__4__background.1" type="background" depart="244.42" departLane="random">
        <route edges="30658263#0 102640432#0 102640432#3"/>
    </vehicle>
    <vehicle id="960661806#0__4__background.0" type="background" depart="250.00" departLane="random">
        <route edges="960661806#0 102640426#0"/>
    </vehicle>
    <vehicle id="960661806#0__4__background.1" type="background" depart="255.69" departLane="random">
        <route edges="960661806#0 102640426#0"/>
    </vehicle>
    <vehicle id="960661806#0__4__background.2" type="background" depart="257.02" departLane="random">
        <route edges="960661806#0 102640426#0"/>
    </vehicle>
    <vehicle id="102454134#0__4__background.1" type="background" depart="257.86" departLane="random">
        <route edges="102454134#0 102640432#0 102640432#3"/>
    </vehicle>
    <vehicle id="1200878753#0__4__background.0" type="background" depart="263.13" departLane="random">
        <route edges="1200878753#0 102640412#0 102640412#0.25 102640412#2"/>
    </vehicle>
    <vehicle id="960661806#0__4__background.3" type="background" depart="263.93" departLane="random">
        <route edges="960661806#0 102640426#0"/>
    </vehicle>
    <vehicle id="102454134#0__4__background.2" type="background" depart="264.00" departLane="random">
        <route edges="102454134#0 102640432#0 102640432#3"/>
    </vehicle>
    <vehicle id="1200878753#0__4__background.1" type="background" depart="264.16" departLane="random">
        <route edges="1200878753#0 102640412#0 102640412#0.25 102640412#2"/>
    </vehicle>
    <vehicle id="102454134#0__4__background.3" type="background" depart="265.38" departLane="random">
        <route edges="102454134#0 102640432#0 102640432#3"/>
    </vehicle>
    <vehicle id="960661806#0__4__background.4" type="background" depart="269.95" departLane="random">
        <route edges="960661806#0 102640426#0"/>
    </vehicle>
    <vehicle id="1200878753#0__4__background.2" type="background" depart="270.66" departLane="random">
        <route edges="1200878753#0 102640412#0 102640412#0.25 102640412#2"/>
    </vehicle>
    <vehicle id="30658263#0__4__background.2" type="background" depart="271.56" departLane="random">
        <route edges="30658263#0 102640432#0 102640429"/>
    </vehicle>
    <vehicle id="1200878753#0__4__background.3" type="background" depart="272.73" departLane="random">
        <route edges="1200878753#0 102640426#0"/>
    </vehicle>
    <vehicle id="30658263#0__4__background.3" type="background" depart="275.06" departLane="random">
        <route edges="30658263#0 102640453#0"/>
    </vehicle>
    <vehicle id="102454134#0__4__background.4" type="background" depart="275.15" departLane="random">
        <route edges="102454134#0 102640432#0 102640432#3"/>
    </vehicle>
    <vehicle id="1200878753#0__4__background.4" type="background" depart="276.77" departLane="random">
        <route edges="1200878753#0 102640426#0"/>
    </vehicle>
    <vehicle id="30658263#0__4__background.4" type="background" depart="277.79" departLane="random">
        <route edges="30658263#0 102640453#0"/>
    </vehicle>
    <vehicle id="1200878753#0__4__background.5" type="background" depart="277.89" departLane="random">
        <route edges="1200878753#0 102640412#0 102640412#0.25 102640412#2"/>
    </vehicle>
    <vehicle id="102454134#0__4__background.5" type="background" depart="282.62" departLane="random">
        <route edges="102454134#0 102640432#0 102640432#3"/>
    </vehicle>
    <vehicle id="960661806#0__4__background.5" type="background" depart="283.02" departLane="random">
        <route edges="960661806#0 102640426#0"/>
    </vehicle>
    <vehicle id="30658263#0__4__background.5" type="background" depart="287.48" departLane="random">
        <route edges="30658263#0 102640453#0"/>
    </vehicle>
    <vehicle id="1200878753#0__4__background.6" type="background" depart="287.50" departLane="random">
        <route edges="1200878753#0 102640412#0 102640412#0.25 102640412#2"/>
    </vehicle>
    <vehicle id="960661806#0__4__background.6" type="background" depart="287.89" departLane="random">
        <route edges="960661806#0 102640426#0"/>
    </vehicle>
    <vehicle id="30658263#0__4__background.6" type="background" depart="292.97" departLane="random">
        <route edges="30658263#0 102640453#0"/>
    </vehicle>
    <vehicle id="960661806#0__4__background.7" type="background" depart="295.99" departLane="random">
        <route edges="960661806#0 102640426#0"/>
    </vehicle>
    <vehicle id="30658263#0__4__background.7" type="background" depart="298.13" departLane="random">
        <route edges="30658263#0 102640453#0"/>
    </vehicle>
    <vehicle id="960661806#0__4__background.8" type="background" depart="299.84" departLane="random">
        <route edges="960661806#0 102640426#0"/>
    </vehicle>
    <vehicle id="1200878753#0__4__background.7" type="background" depart="299.89" departLane="random">
        <route edges="1200878753#0 102640426#0"/>
    </vehicle>
    <vehicle id="960661806#0__5__background.0" type="background" depart="301.02" departLane="random">
        <route edges="960661806#0 102640426#0"/>
    </vehicle>
    <vehicle id="1200878753#0__5__background.0" type="background" depart="301.71" departLane="random">
        <route edges="1200878753#0 102640412#0 102640412#0.25 102640412#2"/>
    </vehicle>
    <vehicle id="960661806#0__5__background.1" type="background" depart="304.61" departLane="random">
        <route edges="960661806#0 102640426#0"/>
    </vehicle>
    <vehicle id="960661806#0__5__background.2" type="background" depart="305.98" departLane="random">
        <route edges="960661806#0 102640426#0"/>
    </vehicle>
    <vehicle id="30658263#0__5__background.0" type="background" depart="306.73" departLane="random">
        <route edges="30658263#0 102640453#0"/>
    </vehicle>
    <vehicle id="1200878753#0__5__background.1" type="background" depart="307.76" departLane="random">
        <route edges="1200878753#0 102640412#0 102640412#0.25 102640412#2"/>
    </vehicle>
    <vehicle id="1200878753#0__5__background.2" type="background" depart="308.42" departLane="random">
        <route edges="1200878753#0 102640412#0 102640412#0.25 102640412#2"/>
    </vehicle>
    <vehicle id="102454134#0__5__background.0" type="background" depart="309.40" departLane="random">
        <route edges="102454134#0 102640432#0 102640432#3"/>
    </vehicle>
    <vehicle id="102454134#0__5__background.1" type="background" depart="310.39" departLane="random">
        <route edges="102454134#0 102640432#0 102640432#3"/>
    </vehicle>
    <vehicle id="960661806#0__5__background.3" type="background" depart="311.59" departLane="random">
        <route edges="960661806#0 102640426#0"/>
    </vehicle>
    <vehicle id="30658263#0__5__background.1" type="background" depart="314.92" departLane="random">
        <route edges="30658263#0 102640453#0"/>
    </vehicle>
    <vehicle id="960661806#0__5__background.4" type="background" depart="315.04" departLane="random">
        <route edges="960661806#0 102640426#0"/>
    </vehicle>
    <vehicle id="102454134#0__5__background.2" type="background" depart="320.50" departLane="random">