<?xml version="1.0" encoding="UTF-8"?>

<!-- generated on 2026-04-13T16:37:26.858838+08:00 by Eclipse SUMO jtrrouter 1.26.0
<jtrrouterConfiguration xmlns:xsi="http://www.w3.org/2001/XMLSchema-instance" xsi:noNamespaceSchemaLocation="http://sumo.dlr.de/xsd/jtrrouterConfiguration.xsd">

    <input>
        <net-file value="/home/wmn/Coding_Project/TrafficAlpha/SingleTSC_TranSimHub/exp_junction/Tianjin_zhijingdao/./networks/normal.net.xml"/>
        <route-files value="/home/wmn/Coding_Project/TrafficAlpha/SingleTSC_TranSimHub/exp_junction/Tianjin_zhijingdao/./testflow.trip.xml"/>
        <turn-ratio-files value="/home/wmn/Coding_Project/TrafficAlpha/SingleTSC_TranSimHub/exp_junction/Tianjin_zhijingdao/./testflow.turndefs.xml"/>
    </input>

    <output>
        <output-file value="/home/wmn/Coding_Project/TrafficAlpha/SingleTSC_TranSimHub/exp_junction/Tianjin_zhijingdao/./routes/increasing_demand.rou.xml"/>
    </output>

    <processing>
        <randomize-flows value="True"/>
        <accept-all-destinations value="True"/>
    </processing>

    <defaults>
        <departlane value="random"/>
    </defaults>

    <report>
        <no-warnings value="true"/>
    </report>

    <random_number>
        <seed value="777"/>
    </random_number>

</jtrrouterConfiguration>
-->

<routes xmlns:xsi="http://www.w3.org/2001/XMLSchema-instance" xsi:noNamespaceSchemaLocation="http://sumo.dlr.de/xsd/routes_file.xsd">
    <vType id="background" length="5.00" color="220,220,220" tau="1.0"/>
    <vehicle id="339537367#2.7__0__background.0" type="background" depart="3.58" departLane="random">
        <route edges="339537367#2.7 417937574#3"/>
    </vehicle>
    <vehicle id="417937574#1.74__0__background.0" type="background" depart="6.54" departLane="random">
        <route edges="417937574#1.74 339537367#4"/>
    </vehicle>
    <vehicle id="417937574#1.74__0__background.1" type="background" depart="6.80" departLane="random">
        <route edges="417937574#1.74 417937497#2"/>
    </vehicle>
    <vehicle id="417937497#0.2105__0__background.0" type="background" depart="7.71" departLane="random">
        <route edges="417937497#0.2105 417937574#3"/>
    </vehicle>
    <vehicle id="417937497#0.2105__0__background.1" type="background" depart="10.82" departLane="random">
        <route edges="417937497#0.2105 417937574#3"/>
    </vehicle>
    <vehicle id="339537367#2.7__0__background.1" type="background" depart="10.88" departLane="random">
        <route edges="339537367#2.7 417937574#3"/>
    </vehicle>
    <vehicle id="339537367#2.7__0__background.2" type="background" depart="11.03" departLane="random">
        <route edges="339537367#2.7 339537367#4"/>
    </vehicle>
    <vehicle id="417937574#1.74__0__background.2" type="background" depart="12.32" departLane="random">
        <route edges="417937574#1.74 339537367#4"/>
    </vehicle>
    <vehicle id="339537541#3__0__background.0" type="background" depart="15.93" departLane="random">
        <route edges="339537541#3 339537367#4"/>
    </vehicle>
    <vehicle id="339537367#2.7__0__background.3" type="background" depart="17.37" departLane="random">
        <route edges="339537367#2.7 339537367#4"/>
    </vehicle>
    <vehicle id="417937574#1.74__0__background.3" type="background" depart="19.28" departLane="random">
        <route edges="417937574#1.74 417937574#3"/>
    </vehicle>
    <vehicle id="417937574#1.74__0__background.4" type="background" depart="20.32" departLane="random">
        <route edges="417937574#1.74 417937574#3"/>
    </vehicle>
    <vehicle id="339537367#2.7__0__background.4" type="background" depart="25.90" departLane="random">
        <route edges="339537367#2.7 417937574#3"/>
    </vehicle>
    <vehicle id="339537541#3__0__background.1" type="background" depart="26.70" departLane="random">
        <route edges="339537541#3 417937497#2"/>
    </vehicle>
    <vehicle id="417937574#1.74__0__background.5" type="background" depart="26.95" departLane="random">
        <route edges="417937574#1.74 417937497#2"/>
    </vehicle>
    <vehicle id="339537367#2.7__0__background.5" type="background" depart="28.79" departLane="random">
        <route edges="339537367#2.7 417937574#3"/>
    </vehicle>
    <vehicle id="417937497#0.2105__0__background.2" type="background" depart="35.91" departLane="random">
        <route edges="417937497#0.2105 339537541#5"/>
    </vehicle>
    <vehicle id="339537541#3__0__background.2" type="background" depart="36.79" departLane="random">
        <route edges="339537541#3 339537541#5"/>
    </vehicle>
    <vehicle id="339537541#3__0__background.3" type="background" depart="40.54" departLane="random">
        <route edges="339537541#3 339537367#4"/>
    </vehicle>
    <vehicle id="339537367#2.7__0__background.6" type="background" depart="40.85" departLane="random">
        <route edges="339537367#2.7 339537541#5"/>
    </vehicle>
    <vehicle id="417937497#0.2105__0__background.3" type="background" depart="41.30" departLane="random">
        <route edges="417937497#0.2105 417937497#2"/>
    </vehicle>
    <vehicle id="339537367#2.7__0__background.7" type="background" depart="44.46" departLane="random">
        <route edges="339537367#2.7 339537367#4"/>
    </vehicle>
    <vehicle id="339537541#3__0__background.4" type="background" depart="47.92" departLane="random">
        <route edges="339537541#3 339537541#5"/>
    </vehicle>
    <vehicle id="417937497#0.2105__0__background.4" type="background" depart="48.23" departLane="random">
        <route edges="417937497#0.2105 417937574#3"/>
    </vehicle>
    <vehicle id="339537541#3__0__background.5" type="background" depart="52.13" departLane="random">
        <route edges="339537541#3 339537367#4"/>
    </vehicle>
    <vehicle id="339537541#3__0__background.6" type="background" depart="54.94" departLane="random">
        <route edges="339537541#3 339537367#4"/>
    </vehicle>
    <vehicle id="417937497#0.2105__0__background.5" type="background" depart="56.15" departLane="random">
        <route edges="417937497#0.2105 417937574#3"/>
    </vehicle>
    <vehicle id="417937497#0.2105__1__background.0" type="background" depart="60.03" departLane="random">
        <route edges="417937497#0.2105 417937574#3"/>
    </vehicle>
    <vehicle id="339537541#3__1__background.0" type="background" depart="60.84" departLane="random">
        <route edges="339537541#3 417937497#2"/>
    </vehicle>
    <vehicle id="339537367#2.7__1__background.0" type="background" depart="64.16" departLane="random">
        <route edges="339537367#2.7 339537541#5"/>
    </vehicle>
    <vehicle id="417937497#0.2105__1__background.1" type="background" depart="64.54" departLane="random">
        <route edges="417937497#0.2105 339537541#5"/>
    </vehicle>
    <vehicle id="339537541#3__1__background.1" type="background" depart="65.68" departLane="random">
        <route edges="339537541#3 417937497#2"/>
    </vehicle>
    <vehicle id="339537367#2.7__1__background.1" type="background" depart="65.99" departLane="random">
        <route edges="339537367#2.7 339537367#4"/>
    </vehicle>
    <vehicle id="339537367#2.7__1__background.2" type="background" depart="67.95" departLane="random">
        <route edges="339537367#2.7 417937574#3"/>
    </vehicle>
    <vehicle id="339537541#3__1__background.2" type="background" depart="75.68" departLane="random">
        <route edges="339537541#3 339537367#4"/>
    </vehicle>
    <vehicle id="339537541#3__1__background.3" type="background" depart="76.75" departLane="random">
        <route edges="339537541#3 339537541#5"/>
    </vehicle>
    <vehicle id="339537541#3__1__background.4" type="background" depart="83.35" departLane="random">
        <route edges="339537541#3 417937497#2"/>
    </vehicle>
    <vehicle id="417937574#1.74__1__background.0" type="background" depart="85.22" departLane="random">
        <route edges="417937574#1.74 417937574#3"/>
    </vehicle>
    <vehicle id="417937574#1.74__1__background.1" type="background" depart="86.23" departLane="random">
        <route edges="417937574#1.74 417937574#3"/>
    </vehicle>
    <vehicle id="417937574#1.74__1__background.2" type="background" depart="86.40" departLane="random">
        <route edges="417937574#1.74 417937574#3"/>
    </vehicle>
    <vehicle id="339537367#2.7__1__background.3" type="background" depart="88.29" departLane="random">
        <route edges="339537367#2.7 417937574#3"/>
    </vehicle>
    <vehicle id="417937497#0.2105__1__background.2" type="background" depart="90.89" departLane="random">
        <route edges="417937497#0.2105 339537541#5"/>
    </vehicle>
    <vehicle id="417937574#1.74__1__background.3" type="background" depart="91.08" departLane="random">
        <route edges="417937574#1.74 339537367#4"/>
    </vehicle>
    <vehicle id="339537367#2.7__1__background.4" type="background" depart="93.66" departLane="random">
        <route edges="339537367#2.7 339537541#5"/>
    </vehicle>
    <vehicle id="417937574#1.74__1__background.4" type="background" depart="99.15" departLane="random">
        <route edges="417937574#1.74 417937574#3"/>
    </vehicle>
    <vehicle id="339537367#2.7__1__background.5" type="background" depart="103.19" departLane="random">
        <route edges="339537367#2.7 339537367#4"/>
    </vehicle>
    <vehicle id="339537367#2.7__1__background.6" type="background" depart="106.02" departLane="random">
        <route edges="339537367#2.7 417937574#3"/>
    </vehicle>
    <vehicle id="339537541#3__1__background.5" type="background" depart="106.02" departLane="random">
        <route edges="339537541#3 339537541#5"/>
    </vehicle>
    <vehicle id="417937574#1.74__1__background.5" type="background" depart="108.14" departLane="random">
        <route edges="417937574#1.74 339537367#4"/>
    </vehicle>
    <vehicle id="417937497#0.2105__1__background.3" type="background" depart="109.14" departLane="random">
        <route edges="417937497#0.2105 339537541#5"/>
    </vehicle>
    <vehicle id="339537541#3__1__background.6" type="background" depart="111.52" departLane="random">
        <route edges="339537541#3 417937497#2"/>
    </vehicle>
    <vehicle id="339537367#2.7__1__background.7" type="background" depart="113.45" departLane="random">
        <route edges="339537367#2.7 339537367#4"/>
    </vehicle>
    <vehicle id="417937497#0.2105__1__background.4" type="background" depart="117.89" departLane="random">
        <route edges="417937497#0.2105 417937497#2"/>
    </vehicle>
    <vehicle id="417937497#0.2105__1__background.5" type="background" depart="119.78" departLane="random">
        <route edges="417937497#0.2105 339537541#5"/>
    </vehicle>
    <vehicle id="339537367#2.7__2__background.0" type="background" depart="121.54" departLane="random">
        <route edges="339537367#2.7 417937574#3"/>
    </vehicle>
    <vehicle id="417937574#1.74__2__background.0" type="background" depart="121.72" departLane="random">
        <route edges="417937574#1.74 417937574#3"/>
    </vehicle>
    <vehicle id="339537367#2.7__2__background.1" type="background" depart="123.43" departLane="random">
        <route edges="339537367#2.7 417937574#3"/>
    </vehicle>
    <vehicle id="417937574#1.74__2__background.1" type="background" depart="123.47" departLane="random">
        <route edges="417937574#1.74 417937497#2"/>
    </vehicle>
    <vehicle id="339537541#3__2__background.0" type="background" depart="129.31" departLane="random">
        <route edges="339537541#3 339537367#4"/>
    </vehicle>
    <vehicle id="417937574#1.74__2__background.2" type="background" depart="130.17" departLane="random">
        <route edges="417937574#1.74 417937497#2"/>
    </vehicle>
    <vehicle id="339537541#3__2__background.1" type="background" depart="131.26" departLane="random">
        <route edges="339537541#3 339537367#4"/>
    </vehicle>
    <vehicle id="417937574#1.74__2__background.3" type="background" depart="132.29" departLane="random">
        <route edges="417937574#1.74 417937574#3"/>
    </vehicle>
    <vehicle id="339537367#2.7__2__background.2" type="background" depart="132.41" departLane="random">
        <route edges="339537367#2.7 417937574#3"/>
    </vehicle>
    <vehicle id="339537367#2.7__2__background.3" type="background" depart="133.67" departLane="random">
        <route edges="339537367#2.7 339537541#5"/>
    </vehicle>
    <vehicle id="417937497#0.2105__2__background.0" type="background" depart="134.01" departLane="random">
        <route edges="417937497#0.2105 417937574#3"/>
    </vehicle>
    <vehicle id="339537541#3__2__background.2" type="background" depart="135.08" departLane="random">
        <route edges="339537541#3 339537541#5"/>
    </vehicle>
    <vehicle id="339537367#2.7__2__background.4" type="background" depart="135.59" departLane="random">
        <route edges="339537367#2.7 339537541#5"/>
    </vehicle>
    <vehicle id="339537367#2.7__2__background.5" type="background" depart="136.46" departLane="random">
        <route edges="339537367#2.7 339537541#5"/>
    </vehicle>
    <vehicle id="417937574#1.74__2__background.4" type="background" depart="136.73" departLane="random">
        <route edges="417937574#1.74 417937574#3"/>
    </vehicle>
    <vehicle id="339537541#3__2__background.3" type="background" depart="138.84" departLane="random">
        <route edges="339537541#3 417937497#2"/>
    </vehicle>
    <vehicle id="339537367#2.7__2__background.6" type="background" depart="140.50" departLane="random">
        <route edges="339537367#2.7 339537367#4"/>
    </vehicle>
    <vehicle id="417937497#0.2105__2__background.1" type="background" depart="143.16" departLane="random">
        <route edges="417937497#0.2105 417937497#2"/>
    </vehicle>
    <vehicle id="417937497#0.2105__2__background.2" type="background" depart="145.86" departLane="random">
        <route edges="417937497#0.2105 417937574#3"/>
    </vehicle>
    <vehicle id="417937574#1.74__2__background.5" type="background" depart="147.35" departLane="random">
        <route edges="417937574#1.74 339537367#4"/>
    </vehicle>
    <vehicle id="339537367#2.7__2__background.7" type="background" depart="149.83" departLane="random">
        <route edges="339537367#2.7 339537541#5"/>
    </vehicle>
    <vehicle id="417937497#0.2105__2__background.3" type="background" depart="155.70" departLane="random">
        <route edges="417937497#0.2105 417937497#2"/>
    </vehicle>
    <vehicle id="417937574#1.74__2__background.6" type="background" depart="157.85" departLane="random">
        <route edges="417937574#1.74 417937497#2"/>
    </vehicle>
    <vehicle id="339537367#2.7__2__background.8" type="background" depart="162.87" departLane="random">
        <route edges="339537367#2.7 417937574#3"/>
    </vehicle>
    <vehicle id="339537541#3__2__background.4" type="background" depart="163.28" departLane="random">
        <route edges="339537541#3 339537367#4"/>
    </vehicle>
    <vehicle id="417937497#0.2105__2__background.4" type="background" depart="164.98" departLane="random">
        <route edges="417937497#0.2105 417937497#2"/>
    </vehicle>
    <vehicle id="339537367#2.7__2__background.9" type="background" depart="165.90" departLane="random">
        <route edges="339537367#2.7 339537541#5"/>
    </vehicle>
    <vehicle id="417937497#0.2105__2__background.5" type="background" depart="167.92" departLane="random">
        <route edges="417937497#0.2105 417937497#2"/>
    </vehicle>
    <vehicle id="417937497#0.2105__2__background.6" type="background" depart="170.44" departLane="random">
        <route edges="417937497#0.2105 417937574#3"/>
    </vehicle>
    <vehicle id="417937574#1.74__2__background.7" type="background" depart="170.49" departLane="random">
        <route edges="417937574#1.74 417937574#3"/>
    </vehicle>
    <vehicle id="339537541#3__2__background.5" type="background" depart="171.42" departLane="random">
        <route edges="339537541#3 339537541#5"/>
    </vehicle>
    <vehicle id="417937497#0.2105__2__background.7" type="background" depart="172.24" departLane="random">
        <route edges="417937497#0.2105 417937497#2"/>
    </vehicle>
    <vehicle id="339537541#3__2__background.6" type="background" depart="173.47" departLane="random">
        <route edges="339537541#3 339537367#4"/>
    </vehicle>
    <vehicle id="339537541#3__2__background.7" type="background" depart="174.52" departLane="random">
        <route edges="339537541#3 339537541#5"/>
    </vehicle>
    <vehicle id="339537541#3__3__background.0" type="background" depart="180.09" departLane="random">
        <route edges="339537541#3 339537541#5"/>
    </vehicle>
    <vehicle id="339537541#3__3__background.1" type="background" depart="180.19" departLane="random">
        <route edges="339537541#3 417937497#2"/>
    </vehicle>
    <vehicle id="339537541#3__3__background.2" type="background" depart="184.84" departLane="random">
        <route edges="339537541#3 339537541#5"/>
    </vehicle>
    <vehicle id="417937574#1.74__3__background.0" type="background" depart="188.46" departLane="random">
        <route edges="417937574#1.74 417937574#3"/>
    </vehicle>
    <vehicle id="417937497#0.2105__3__background.0" type="background" depart="188.53" departLane="random">
        <route edges="417937497#0.2105 339537541#5"/>
    </vehicle>
    <vehicle id="417937497#0.2105__3__background.1" type="background" depart="194.15" departLane="random">
        <route edges="417937497#0.2105 339537541#5"/>
    </vehicle>
    <vehicle id="417937574#1.74__3__background.1" type="background" depart="194.36" departLane="random">
        <route edges="417937574#1.74 417937574#3"/>
    </vehicle>
    <vehicle id="339537367#2.7__3__background.0" type="background" depart="196.26" departLane="random">
        <route edges="339537367#2.7 339537367#4"/>
    </vehicle>
    <vehicle id="417937497#0.2105__3__background.2" type="background" depart="199.56" departLane="random">
        <route edges="417937497#0.2105 417937497#2"/>
    </vehicle>
    <vehicle id="339537367#2.7__3__background.1" type="background" depart="204.69" departLane="random">
        <route edges="339537367#2.7 339537541#5"/>
    </vehicle>
    <vehicle id="417937497#0.2105__3__background.3" type="background" depart="205.38" departLane="random">
        <route edges="417937497#0.2105 339537541#5"/>
    </vehicle>
    <vehicle id="339537541#3__3__background.3" type="background" depart="205.80" departLane="random">
        <route edges="339537541#3 339537541#5"/>
    </vehicle>
    <vehicle id="417937574#1.74__3__background.2" type="background" depart="208.54" departLane="random">
        <route edges="417937574#1.74 339537367#4"/>
    </vehicle>
    <vehicle id="417937574#1.74__3__background.3" type="background" depart="210.51" departLane="random">
        <route edges="417937574#1.74 417937574#3"/>
    </vehicle>
    <vehicle id="417937497#0.2105__3__background.4" type="background" depart="211.76" departLane="random">
        <route edges="417937497#0.2105 339537541#5"/>
    </vehicle>
    <vehicle id="339537541#3__3__background.4" type="background" depart="211.85" departLane="random">
        <route edges="339537541#3 339537541#5"/>
    </vehicle>
    <vehicle id="417937574#1.74__3__background.4" type="background" depart="211.94" departLane="random">
        <route edges="417937574#1.74 339537367#4"/>
    </vehicle>
    <vehicle id="417937497#0.2105__3__background.5" type="background" depart="212.29" departLane="random">
        <route edges="417937497#0.2105 417937574#3"/>
    </vehicle>
    <vehicle id="417937497#0.2105__3__background.6" type="background" depart="215.15" departLane="random">
        <route edges="417937497#0.2105 417937574#3"/>
    </vehicle>
    <vehicle id="339537367#2.7__3__background.2" type="background" depart="217.85" departLane="random">
        <route edges="339537367#2.7 417937574#3"/>
    </vehicle>
    <vehicle id="339537541#3__3__background.5" type="background" depart="219.52" departLane="random">
        <route edges="339537541#3 339537541#5"/>
    </vehicle>
    <vehicle id="339537367#2.7__3__background.3" type="background" depart="219.82" departLane="random">
        <route edges="339537367#2.7 339537367#4"/>
    </vehicle>
    <vehicle id="339537541#3__3__background.6" type="background" depart="222.11" departLane="random">
        <route edges="339537541#3 339537367#4"/>
    </vehicle>
    <vehicle id="339537367#2.7__3__background.4" type="background" depart="222.53" departLane="random">
        <route edges="339537367#2.7 339537541#5"/>
    </vehicle>
    <vehicle id="339537367#2.7__3__background.5" type="background" depart="223.32" departLane="random">
        <route edges="339537367#2.7 339537541#5"/>
    </vehicle>
    <vehicle id="339537367#2.7__3__background.6" type="background" depart="223.99" departLane="random">
        <route edges="339537367#2.7 339537541#5"/>
    </vehicle>
    <vehicle id="339537367#2.7__3__background.7" type="background" depart="224.08" departLane="random">
        <route edges="339537367#2.7 339537541#5"/>
    </vehicle>
    <vehicle id="339537367#2.7__3__background.8" type="background" depart="225.08" departLane="random">
        <route edges="339537367#2.7 339537541#5"/>
    </vehicle>
    <vehicle id="417937574#1.74__3__background.5" type="background" depart="225.09" departLane="random">
        <route edges="417937574#1.74 339537367#4"/>
    </vehicle>
    <vehicle id="339537367#2.7__3__background.9" type="background" depart="227.20" departLane="random">
        <route edges="339537367#2.7 339537367#4"/>
    </vehicle>
    <vehicle id="417937497#0.2105__3__background.7" type="background" depart="229.49" departLane="random">
        <route edges="417937497#0.2105 339537541#5"/>
    </vehicle>
    <vehicle id="417937574#1.74__3__background.6" type="background" depart="233.82" departLane="random">
        <route edges="417937574#1.74 339537367#4"/>
    </vehicle>
    <vehicle id="417937574#1.74__3__background.7" type="background" depart="237.22" departLane="random">
        <route edges="417937574#1.74 339537367#4"/>
    </vehicle>
    <vehicle id="339537541#3__3__background.7" type="background" depart="238.72" departLane="random">
        <route edges="339537541#3 339537541#5"/>
    </vehicle>
    <vehicle id="339537541#3__4__background.0" type="background" depart="240.29" departLane="random">
        <route edges="339537541#3 417937497#2"/>
    </vehicle>
    <vehicle id="339537541#3__4__background.1" type="background" depart="242.31" departLane="random">
        <route edges="339537541#3 339537367#4"/>
    </vehicle>
    <vehicle id="339537367#2.7__4__background.0" type="background" depart="243.44" departLane="random">
        <route edges="339537367#2.7 339537367#4"/>
    </vehicle>
    <vehicle id="339537367#2.7__4__background.1" type="background" depart="243.47" departLane="random">
        <route edges="339537367#2.7 339537367#4"/>
    </vehicle>
    <vehicle id="417937574#1.74__4__background.0" type="background" depart="244.98" departLane="random">
        <route edges="417937574#1.74 417937497#2"/>
    </vehicle>
    <vehicle id="417937497#0.2105__4__background.0" type="background" depart="245.02" departLane="random">
        <route edges="417937497#0.2105 339537541#5"/>
    </vehicle>
    <vehicle id="339537367#2.7__4__background.2" type="background" depart="245.34" departLane="random">
        <route edges="339537367#2.7 339537367#4"/>
    </vehicle>
    <vehicle id="339537367#2.7__4__background.3" type="background" depart="246.85" departLane="random">
        <route edges="339537367#2.7 417937574#3"/>
    </vehicle>
    <vehicle id="417937574#1.74__4__background.1" type="background" depart="247.40" departLane="random">
        <route edges="417937574#1.74 339537367#4"/>
    </vehicle>
    <vehicle id="417937574#1.74__4__background.2" type="background" depart="249.68" departLane="random">
        <route edges="417937574#1.74 417937497#2"/>
    </vehicle>
    <vehicle id="339537367#2.7__4__background.4" type="background" depart="250.71" departLane="random">
        <route edges="339537367#2.7 417937574#3"/>
    </vehicle>
    <vehicle id="417937574#1.74__4__background.3" type="background" depart="253.00" departLane="random">
        <route edges="417937574#1.74 339537367#4"/>
    </vehicle>
    <vehicle id="339537367#2.7__4__background.5" type="background" depart="253.15" departLane="random">
        <route edges="339537367#2.7 339537541#5"/>
    </vehicle>
    <vehicle id="339537367#2.7__4__background.6" type="background" depart="253.62" departLane="random">
        <route edges="339537367#2.7 417937574#3"/>
    </vehicle>
    <vehicle id="417937497#0.2105__4__background.1" type="background" depart="253.90" departLane="random">
        <route edges="417937497#0.2105 417937497#2"/>
    </vehicle>
    <vehicle id="339537541#3__4__background.2" type="background" depart="257.86" departLane="random">
        <route edges="339537541#3 417937497#2"/>
    </vehicle>
    <vehicle id="339537541#3__4__background.3" type="background" depart="263.38" departLane="random">
        <route edges="339537541#3 417937497#2"/>
    </vehicle>
    <vehicle id="339537541#3__4__background.4" type="background" depart="264.00" departLane="random">
        <route edges="339537541#3 339537541#5"/>
    </vehicle>
    <vehicle id="417937497#0.2105__4__background.2" type="background" depart="264.06" departLane="random">
        <route edges="417937497#0.2105 417937497#2"/>
    </vehicle>
    <vehicle id="417937497#0.2105__4__background.3" type="background" depart="266.84" departLane="random">
        <route edges="417937497#0.2105 417937497#2"/>
    </vehicle>
    <vehicle id="339537367#2.7__4__background.7" type="background" depart="270.73" departLane="random">
        <route edges="339537367#2.7 339537367#4"/>
    </vehicle>
    <vehicle id="339537541#3__4__background.5" type="background" depart="271.41" departLane="random">
        <route edges="339537541#3 339537367#4"/>
    </vehicle>
    <vehicle id="417937574#1.74__4__background.4" type="background" depart="271.63" departLane="random">
        <route edges="417937574#1.74 417937574#3"/>
    </vehicle>
    <vehicle id="417937497#0.2105__4__background.4" type="background" depart="272.07" departLane="random">
        <route edges="417937497#0.2105 417937574#3"/>
    </vehicle>
    <vehicle id="339537367#2.7__4__background.8" type="background" depart="272.85" departLane="random">
        <route edges="339537367#2.7 339537541#5"/>
    </vehicle>
    <vehicle id="339537541#3__4__background.6" type="background" depart="273.35" departLane="random">
        <route edges="339537541#3 339537541#5"/>
    </vehicle>
    <vehicle id="417937574#1.74__4__background.5" type="background" depart="273.36" departLane="random">
        <route edges="417937574#1.74 417937574#3"/>
    </vehicle>
    <vehicle id="339537367#2.7__4__background.9" type="background" depart="273.56" departLane="random">
        <route edges="339537367#2.7 417937574#3"/>
    </vehicle>
    <vehicle id="339537541#3__4__background.7" type="background" depart="273.66" departLane="random">
        <route edges="339537541#3 339537541#5"/>
    </vehicle>
    <vehicle id="417937497#0.2105__4__background.5" type="background" depart="273.90" departLane="random">
        <route edges="417937497#0.2105 417937497#2"/>
    </vehicle>
    <vehicle id="339537541#3__4__background.8" type="background" depart="274.35" departLane="random">
        <route edges="339537541#3 339537541#5"/>
    </vehicle>
    <vehicle id="417937497#0.2105__4__background.6" type="background" depart="279.12" departLane="random">
        <route edges="417937497#0.2105 339537541#5"/>
    </vehicle>
    <vehicle id="417937497#0.2105__4__background.7" type="background" depart="279.24" departLane="random">
        <route edges="417937497#0.2105 417937497#2"/>
    </vehicle>
    <vehicle id="417937574#1.74__4__background.6" type="background" depart="279.75" departLane="random">
        <route edges="417937574#1.74 417937497#2"/>
    </vehicle>
    <vehicle id="339537367#2.7__4__background.10" type="background" depart="282.32" departLane="random">
        <route edges="339537367#2.7 417937574#3"/>
    </vehicle>
    <vehicle id="339537541#3__4__background.9" type="background" depart="282.62" departLane="random">
        <route edges="339537541#3 339537367#4"/>
    </vehicle>
    <vehicle id="339537541#3__4__background.10" type="background" depart="283.50" departLane="random">
        <route edges="339537541#3 417937497#2"/>
    </vehicle>
    <vehicle id="339537367#2.7__4__background.11" type="background" depart="284.33" departLane="random">
        <route edges="339537367#2.7 339537541#5"/>
    </vehicle>
    <vehicle id="339537541#3__4__background.11" type="background" depart="284.42" departLane="random">
        <route edges="339537541#3 339537367#4"/>
    </vehicle>
    <vehicle id="417937574#1.74__4__background.7" type="background" depart="285.69" departLane="random">
        <route edges="417937574#1.74 417937574#3"/>
    </vehicle>
    <vehicle id="339537367#2.7__4__background.12" type="background" depart="285.79" departLane="random">
        <route edges="339537367#2.7 417937574#3"/>
    </vehicle>
    <vehicle id="417937497#0.2105__4__background.8" type="background" depart="287.47" departLane="random">
        <route edges="417937497#0.2105 417937497#2"/>
    </vehicle>
    <vehicle id="417937574#1.74__4__background.8" type="background" depart="288.47" departLane="random">
        <route edges="417937574#1.74 417937497#2"/>
    </vehicle>
    <vehicle id="339537367#2.7__4__background.13" type="background" depart="293.97" departLane="random">
        <route edges="339537367#2.7 417937574#3"/>
    </vehicle>
    <vehicle id="339537367#2.7__4__background.14" type="background" depart="295.68" departLane="random">
        <route edges="339537367#2.7 339537541#5"/>
    </vehicle>