<?xml version="1.0" encoding="UTF-8"?>

<!-- generated on 2025-07-08 18:38:34 by Eclipse SUMO polyconvert Version 1.22.0
<polyconvertConfiguration xmlns:xsi="http://www.w3.org/2001/XMLSchema-instance" xsi:noNamespaceSchemaLocation="http://sumo.dlr.de/xsd/polyconvertConfiguration.xsd">

    <input>
        <net-file value="/home/china/桌面/tscvla/sim_envs/Chengdu_Chenghannanlu/env/map.net.xml"/>
        <osm-files value="/home/china/桌面/tscvla/sim_envs/Chengdu_Chenghannanlu/map.osm"/>
        <osm.merge-relations value="1"/>
        <type-file value="/home/china/桌面/TransSimHub/tshub/sumo_tools/./osm_build_type/poly.typ.xml"/>
    </input>

    <output>
        <output-file value="/home/china/桌面/tscvla/sim_envs/Chengdu_Chenghannanlu/env/map.poly.xml"/>
    </output>

    <building_defaults>
        <discard value="true"/>
    </building_defaults>

</polyconvertConfiguration>
-->

<additional xmlns:xsi="http://www.w3.org/2001/XMLSchema-instance" xsi:noNamespaceSchemaLocation="http://sumo.dlr.de/xsd/additional_file.xsd">
    <location netOffset="-408705.28,-3382798.37" convBoundary="-353.99,-592.94,1757.58,1847.23" origBoundary="104.044236,30.568889,104.066246,30.590883" projParameter="+proj=utm +zone=48 +ellps=WGS84 +datum=WGS84 +units=m +no_defs"/>

    <poly id="241998373" type="tourism" color="207,245,201" fill="1" layer="-2.00" shape="-268.924502,282.063174 -269.642943,192.804113 -300.594005,193.421246 -301.519893,166.795852 -349.647285,167.337150 -351.519039,147.923951 -339.523664,113.818501 -353.987047,-76.237647 -350.777531,-98.087957 -348.231732,-112.262969 -349.429517,-131.360465 -226.825157,-168.354370 -154.433698,-296.979889 219.778329,-437.308641 402.284221,-500.081097 555.293343,-551.220124 700.422658,-592.936561 816.281205,-27.994955 805.167132,-9.581162 684.177615,-9.719439 507.674163,8.764596 407.278030,42.083085 -268.924502,282.063174"/>
    <poly id="250777735" type="building" color="255,230,230" fill="1" layer="-1.00" shape="510.095939,247.800019 520.117466,247.815526 520.121081,244.823003 532.127756,244.844003 532.143168,234.126317 527.328930,234.111363 527.333852,231.273996 503.790435,231.239153 503.790729,233.555561 497.099340,233.833485 497.083963,244.551171 510.105881,244.419527 510.095939,247.800019"/>
    <poly id="250777737" type="building" color="255,230,230" fill="1" layer="-1.00" shape="573.191121,216.258706 582.832363,218.948544 583.642513,216.071163 595.206246,219.299028 598.121199,208.978160 593.478442,207.687156 594.251449,204.954171 571.585252,198.616495 570.961394,200.838396 564.437189,199.330461 561.531854,209.651259 574.103491,212.992551 573.191121,216.258706"/>
    <poly id="250777738" type="building" color="255,230,230" fill="1" layer="-1.00" shape="540.788812,77.258168 550.800906,77.273789 550.804532,74.281267 562.820985,74.302224 562.836434,63.584542 558.022121,63.569572 558.027053,60.732206 534.483266,60.697287 534.473963,63.013775 527.792057,63.291596 527.776643,74.009279 540.789176,73.877758 540.788812,77.258168"/>
    <poly id="250777739" type="building" color="255,230,230" fill="1" layer="-1.00" shape="475.052153,247.507258 485.064092,247.522814 485.067791,244.541374 497.083963,244.551171 497.099340,233.833485 492.285195,233.829628 492.290107,230.992261 468.746687,230.957494 468.737307,233.262901 462.091440,233.252297 462.077216,244.102974 475.052494,244.126847 475.052153,247.507258"/>
    <poly id="250777742" type="building" color="255,230,230" fill="1" layer="-1.00" shape="505.744477,76.965295 515.756572,76.980883 515.760282,73.999443 527.776643,74.009279 527.792057,63.291596 522.968247,63.287805 522.973170,60.450439 499.438969,60.415515 499.429581,62.720921 492.783609,62.710296 492.759758,73.561051 505.744829,73.584884 505.744477,76.965295"/>
    <poly id="250777743" type="building" color="255,230,230" fill="1" layer="-1.00" shape="246.947905,287.332919 256.969684,287.381429 256.982535,284.355576 268.970371,284.420773 269.023689,273.680592 264.180698,273.665998 264.195513,270.872878 240.651509,270.761033 240.644233,273.310257 234.707890,273.282728 234.654886,284.056158 246.968754,284.118581 246.947905,287.332919"/>
    <poly id="250777745" type="building" color="255,230,230" fill="1" layer="-1.00" shape="179.778233,287.034940 189.800013,287.083388 189.811443,283.891296 201.799189,283.945337 201.852254,273.182989 197.009168,273.157342 197.025648,270.563707 173.481638,270.452008 173.474004,272.956903 166.808790,272.924478 166.755853,283.697909 179.798594,283.765190 179.778233,287.034940"/>
    <poly id="250777747" type="building" color="255,230,230" fill="1" layer="-1.00" shape="122.652159,228.032907 132.662910,227.904064 132.626378,224.712377 145.168682,224.562176 145.041182,214.000850 139.882279,214.055477 139.849210,211.273844 116.308434,211.561238 116.337111,213.821992 109.557818,213.912482 109.686944,224.662210 122.612816,224.508744 122.652159,228.032907"/>
    <poly id="250777749" type="building" color="255,230,230" fill="1" layer="-1.00" shape="116.951577,282.056799 126.973084,282.071941 126.976590,279.079415 138.983242,279.099976 139.007851,268.382200 134.184127,268.378585 134.188945,265.541214 110.645480,265.496147 110.645859,267.812558 103.954493,268.090726 103.939601,278.819505 116.961395,278.676303 116.951577,282.056799"/>
    <poly id="250777753" type="building" color="255,230,230" fill="1" layer="-1.00" shape="292.517048,288.267733 302.529235,288.316367 302.550287,285.124195 314.538121,285.189443 314.591204,274.416016 309.748214,274.401401 309.764721,271.807767 286.220723,271.695823 286.203474,274.200797 279.538263,274.168303 279.485214,284.941731 292.527948,285.009147 292.517048,288.267733"/>
    <poly id="250777754" type="building" color="255,230,230" fill="1" layer="-1.00" shape="511.369662,190.555123 521.391055,190.548468 521.385269,187.578191 533.410999,187.576867 533.407236,176.859344 528.602749,176.866473 528.597803,173.995939 505.054634,174.005420 505.056232,176.476984 498.362477,176.477842 498.366741,187.250779 511.370574,187.241207 511.369662,190.555123"/>
    <poly id="250777756" type="building" color="255,230,230" fill="1" layer="-1.00" shape="326.100656,288.272948 336.112842,288.321612 336.134837,285.240266 347.384118,285.289605 347.446918,274.527180 343.332703,274.506413 343.348379,271.813037 319.804383,271.701019 319.789180,274.449809 314.591204,274.416016 314.538121,285.189443 326.113527,285.247095 326.100656,288.272948"/>
    <poly id="250777757" type="building" color="255,230,230" fill="1" layer="-1.00" shape="476.325690,190.262354 486.337496,190.255747 486.341009,187.252142 498.366741,187.250779 498.362477,176.477842 493.557989,176.484987 493.553873,173.714195 470.010701,173.723753 470.010629,175.995831 463.355324,176.007472 463.360368,186.869069 476.325846,186.859778 476.325690,190.262354"/>
    <poly id="250777761" type="building" color="255,230,230" fill="1" layer="-1.00" shape="511.475848,133.597129 521.487705,133.590557 521.491508,130.620199 533.517302,130.618877 533.513541,119.901355 528.709029,119.908483 528.704083,117.037949 505.160883,117.058510 505.162388,119.518990 498.468691,119.530931 498.472859,130.292784 511.476761,130.283214 511.475848,133.597129"/>
    <poly id="250777763" type="building" color="255,230,230" fill="1" layer="-1.00" shape="359.686781,288.577495 369.698965,288.626191 369.721436,285.600258 381.699584,285.654579 381.762697,274.925403 376.919615,274.899676 376.934552,272.117639 353.390466,271.994465 353.373668,274.554852 347.446918,274.527180 347.384118,285.289605 359.697981,285.352157 359.686781,288.577495"/>
    <poly id="250777765" type="building" color="255,230,230" fill="1" layer="-1.00" shape="213.361856,287.039804 223.383636,287.088283 223.395917,283.995935 234.654886,284.056158 234.707890,273.282728 230.593674,273.262004 230.609321,270.568626 207.065313,270.456854 207.050139,273.205645 201.852254,273.182989 201.799189,283.945337 213.374601,284.002868 213.361856,287.039804"/>
    <poly id="250777766" type="building" color="255,230,230" fill="1" layer="-1.00" shape="476.431692,133.304356 486.443550,133.297750 486.447064,130.294145 498.472859,130.292784 498.468691,119.530931 493.664085,119.526992 493.659969,116.756201 470.116672,116.765755 470.116693,119.048916 463.451671,119.049553 463.466302,129.911069 476.431848,129.901780 476.431692,133.304356"/>
    <poly id="250777767" type="building" color="255,230,230" fill="1" layer="-1.00" shape="158.573305,227.729707 168.584056,227.600897 168.550527,224.763851 180.651726,224.617413 180.523326,213.945263 175.805621,214.007234 175.760821,210.970783 152.229635,211.258018 152.261579,213.906661 145.041182,214.000850 145.168682,224.562176 158.535658,224.405030 158.573305,227.729707"/>
    <poly id="476344209" type="residential" color="235,235,227" fill="1" layer="-3.00" shape="442.015773,322.819137 877.154962,327.745506 876.344945,299.722636 814.523407,26.616065 805.760154,21.136755 661.595750,15.751039 575.113702,22.728111 442.839702,61.678408 442.015773,322.819137"/>
    <poly id="476344212" type="residential" color="235,235,227" fill="1" layer="-3.00" shape="30.131435,307.760902 405.618442,314.358515 402.748076,218.290380 208.693198,214.461296 189.561893,144.044122 88.303526,176.076180 53.106076,196.223720 30.826411,226.591862 21.881450,248.435102 30.131435,307.760902"/>
    <poly id="481315462" type="building" color="255,230,230" fill="1" layer="-1.00" shape="238.088627,185.175122 237.970106,202.964840 289.413128,203.295962 289.531734,185.506247 238.088627,185.175122"/>
    <poly id="481315463" type="building" color="255,230,230" fill="1" layer="-1.00" shape="318.864204,186.278772 318.405259,203.517187 370.125439,204.877107 370.574877,187.638777 318.864204,186.278772"/>
</additional>
