<?xml version="1.0" encoding="UTF-8"?>

<!-- generated on 2025-06-24 14:08:02 by Eclipse SUMO polyconvert Version 1.22.0
<polyconvertConfiguration xmlns:xsi="http://www.w3.org/2001/XMLSchema-instance" xsi:noNamespaceSchemaLocation="http://sumo.dlr.de/xsd/polyconvertConfiguration.xsd">

    <input>
        <net-file value="/home/china/桌面/tscvla/sim_envs/Chengdu_Guanghua/env/map.net.xml"/>
        <osm-files value="/home/china/桌面/tscvla/sim_envs/Chengdu_Guanghua/map.osm"/>
        <osm.merge-relations value="1"/>
        <type-file value="/home/china/桌面/TransSimHub/tshub/sumo_tools/./osm_build_type/poly.typ.xml"/>
    </input>

    <output>
        <output-file value="/home/china/桌面/tscvla/sim_envs/Chengdu_Guanghua/env/map.poly.xml"/>
    </output>

    <building_defaults>
        <discard value="true"/>
    </building_defaults>

</polyconvertConfiguration>
-->

<additional xmlns:xsi="http://www.w3.org/2001/XMLSchema-instance" xsi:noNamespaceSchemaLocation="http://sumo.dlr.de/xsd/additional_file.xsd">
    <location netOffset="-400010.57,-3393666.65" convBoundary="-13348.93,-158.16,7186.66,2470.94" origBoundary="103.816787,30.670701,104.031233,30.692924" projParameter="+proj=utm +zone=48 +ellps=WGS84 +datum=WGS84 +units=m +no_defs"/>

    <poly id="1108257551" type="residential" color="235,235,227" fill="1" layer="-3.00" shape="757.250077,38.880315 757.643310,292.351423 740.248326,307.231151 582.908596,308.296043 570.687823,271.400245 564.089712,253.051070 567.323727,223.571582 559.273867,153.884687 568.565230,104.963696 587.632848,60.607570 588.818551,40.656904 757.250077,38.880315"/>
    <poly id="1108257552" type="commercial" color="209,209,204" fill="1" layer="-3.00" shape="582.908596,308.296043 520.178786,306.559401 505.319642,299.326097 483.144765,260.394363 470.518643,200.437068 465.124696,165.218378 462.921437,95.865382 463.258823,47.415061 463.591778,41.980929 588.818551,40.656904 587.632848,60.607570 568.565230,104.963696 559.273867,153.884687 567.323727,223.571582 564.089712,253.051070 570.687823,271.400245 582.908596,308.296043"/>
    <poly id="1108257553" type="commercial" color="209,209,204" fill="1" layer="-3.00" shape="415.168033,36.499194 422.384322,42.927499 422.171878,117.279468 430.908328,190.661918 446.656417,248.384612 455.933342,283.910966 454.711656,296.834877 443.154823,305.853179 244.535972,308.313719 243.285067,44.242962 248.894072,38.504976 415.168033,36.499194"/>
    <poly id="1108257560" type="residential" color="235,235,227" fill="1" layer="-3.00" shape="759.015034,334.080256 767.943961,341.346434 832.734850,517.856587 828.422857,530.232577 621.305170,604.687318 608.571729,600.393617 522.025082,369.464955 537.397032,339.950805 581.372927,340.131763 608.787370,335.467111 616.735913,333.043919 759.015034,334.080256"/>
    <poly id="1108257563" type="commercial" color="209,209,204" fill="1" layer="-3.00" shape="458.800624,333.905549 477.639804,348.838450 498.772578,402.521242 489.941161,416.169479 263.800190,474.458486 253.273485,472.616423 234.442346,416.208279 231.969402,359.260518 233.377513,343.741235 244.974840,333.946458 458.800624,333.905549"/>
    <poly id="1316157186" type="building" color="255,230,230" fill="1" layer="-1.00" shape="260.125355,348.824523 255.632961,365.447525 286.952387,373.824714 329.666713,361.935002 325.079998,345.639993 287.439752,356.119383 260.125355,348.824523"/>
    <poly id="1316157187" type="building" color="255,230,230" fill="1" layer="-1.00" shape="364.174269,350.431814 351.317107,362.820651 381.833559,394.160074 387.886243,416.692786 404.237980,412.340635 396.547953,383.693740 364.174269,350.431814"/>
    <poly id="1316157188" type="building" color="255,230,230" fill="1" layer="-1.00" shape="258.624119,462.801990 274.564436,458.519955 267.392671,432.074009 277.934215,393.138682 261.885531,388.842858 250.241890,431.867258 258.624119,462.801990"/>
    <poly id="1321815384" type="building" color="255,230,230" fill="1" layer="-1.00" shape="264.215901,285.753084 266.989157,290.371482 275.989299,294.943244 284.942695,294.472322 302.874649,296.245795 324.305566,297.211014 332.465039,294.807824 333.954757,287.046456 333.890074,280.064269 331.516799,276.218014 323.608763,274.739548 313.224296,277.928142 307.784239,279.142348 299.985173,278.050823 287.883724,275.846465 279.290721,272.822650 273.056732,272.104570 266.062379,274.109070 263.378814,279.165989 264.215901,285.753084"/>
    <poly id="1321815385" type="building" color="255,230,230" fill="1" layer="-1.00" shape="355.843079,283.607238 358.930264,278.679611 364.266044,275.515650 370.985508,275.896773 378.141532,275.830507 385.285138,274.423222 396.437169,270.318722 407.137590,267.105117 414.723244,264.807057 421.892957,265.184045 425.961767,270.045418 426.947458,280.277711 420.723484,284.779916 411.360127,287.537779 402.869897,289.400864 393.498340,291.272117 383.662754,292.693239 372.037141,293.244243 363.089731,293.327105 358.149358,291.599455 355.843079,283.607238"/>
    <poly id="1321815386" type="building" color="255,230,230" fill="1" layer="-1.00" shape="273.306187,260.774625 275.930665,254.510124 275.844063,245.167293 275.147598,217.575115 272.422611,214.031394 259.435202,212.378383 254.556630,217.322647 253.076072,249.834044 254.932188,257.830415 259.905680,263.126692 267.065823,263.503665 273.306187,260.774625"/>
</additional>
