<additional xmlns:xsi="http://www.w3.org/2001/XMLSchema-instance" xsi:noNamespaceSchemaLocation="http://sumo.dlr.de/xsd/additional_file.xsd">
    <laneAreaDetector file="e2.output.xml" freq="60" friendlyPos="x" id="e2det--J1---E1---E1_0--r" lane="-E1_0" pos="42.410000000000004" length="60"/>
    <laneAreaDetector file="e2.output.xml" freq="60" friendlyPos="x" id="e2det--J1---E1---E1_1--s" lane="-E1_1" pos="42.410000000000004" length="60"/>
    <laneAreaDetector file="e2.output.xml" freq="60" friendlyPos="x" id="e2det--J1---E1---E1_2--l" lane="-E1_2" pos="42.410000000000004" length="60"/>
    <laneAreaDetector file="e2.output.xml" freq="60" friendlyPos="x" id="e2det--J1---E2---E2_0--r" lane="-E2_0" pos="30.880000000000003" length="60"/>
    <laneAreaDetector file="e2.output.xml" freq="60" friendlyPos="x" id="e2det--J1---E2---E2_1--s" lane="-E2_1" pos="30.880000000000003" length="60"/>
    <laneAreaDetector file="e2.output.xml" freq="60" friendlyPos="x" id="e2det--J1---E2---E2_2--l" lane="-E2_2" pos="30.880000000000003" length="60"/>
    <laneAreaDetector file="e2.output.xml" freq="60" friendlyPos="x" id="e2det--J1--E0--E0_0--r" lane="E0_0" pos="35.24999999999999" length="60"/>
    <laneAreaDetector file="e2.output.xml" freq="60" friendlyPos="x" id="e2det--J1--E0--E0_1--s" lane="E0_1" pos="35.24999999999999" length="60"/>
    <laneAreaDetector file="e2.output.xml" freq="60" friendlyPos="x" id="e2det--J1--E0--E0_2--l" lane="E0_2" pos="35.24999999999999" length="60"/>
    <laneAreaDetector file="e2.output.xml" freq="60" friendlyPos="x" id="e2det--J1---E3---E3_0--r" lane="-E3_0" pos="23.389999999999993" length="60"/>
    <laneAreaDetector file="e2.output.xml" freq="60" friendlyPos="x" id="e2det--J1---E3---E3_1--s" lane="-E3_1" pos="23.389999999999993" length="60"/>
    <laneAreaDetector file="e2.output.xml" freq="60" friendlyPos="x" id="e2det--J1---E3---E3_2--l" lane="-E3_2" pos="23.389999999999993" length="60"/>
</additional>
