<?xml version="1.0" encoding="UTF-8"?>

<!-- generated on 2025-06-24 11:07:30 by Eclipse SUMO polyconvert Version 1.22.0
<polyconvertConfiguration xmlns:xsi="http://www.w3.org/2001/XMLSchema-instance" xsi:noNamespaceSchemaLocation="http://sumo.dlr.de/xsd/polyconvertConfiguration.xsd">

    <input>
        <net-file value="/home/china/桌面/tscvla/sim_envs/Tianjin_zhijingdao/env/map.net.xml"/>
        <osm-files value="/home/china/桌面/tscvla/sim_envs/Tianjin_zhijingdao/map.osm"/>
        <osm.merge-relations value="1"/>
        <type-file value="/home/china/桌面/TransSimHub/tshub/sumo_tools/./osm_build_type/poly.typ.xml"/>
    </input>

    <output>
        <output-file value="/home/china/桌面/tscvla/sim_envs/Tianjin_zhijingdao/env/map.poly.xml"/>
    </output>

    <building_defaults>
        <discard value="true"/>
    </building_defaults>

</polyconvertConfiguration>
-->

<additional xmlns:xsi="http://www.w3.org/2001/XMLSchema-instance" xsi:noNamespaceSchemaLocation="http://sumo.dlr.de/xsd/additional_file.xsd">
    <location netOffset="-501214.23,-4322843.81" convBoundary="-0.00,-0.00,2093.32,2848.28" origBoundary="117.014038,39.054668,117.038230,39.080339" projParameter="+proj=utm +zone=50 +ellps=WGS84 +datum=WGS84 +units=m +no_defs"/>

    <poly id="1219849102" type="landuse" color="194,194,130" fill="1" layer="-3.00" shape="1100.518652,1339.576714 1100.515980,1348.654253 1180.840118,1407.549144 1248.996157,1312.644434 1308.622719,1355.920361 1302.278751,1364.585270 1309.812058,1369.947650 1369.766795,1412.591607 1381.087169,1397.669551 1431.449766,1433.375048 1454.170304,1449.473719 1488.227006,1404.796770 1359.887563,1306.376716 1349.223458,1298.194570 1203.270870,1186.254939 1200.353882,1191.247798 1100.518652,1339.576714"/>
    <poly id="1219849104" type="residential" color="235,235,227" fill="1" layer="-3.00" shape="1356.499029,1536.354762 1390.347786,1489.846272 1431.449766,1433.375048 1381.087169,1397.669551 1369.766795,1412.591607 1309.812058,1369.947650 1247.333446,1456.297646 1356.499029,1536.354762"/>
    <poly id="1219849105" type="residential" color="235,235,227" fill="1" layer="-3.00" shape="1349.223458,1298.194570 1534.298562,1043.409099 1533.369503,1028.272151 1377.824903,901.466795 1369.449994,902.196457 1203.270870,1186.254939 1349.223458,1298.194570"/>
    <poly id="1219849106" type="residential" color="235,235,227" fill="1" layer="-3.00" shape="1359.887563,1306.376716 1488.227006,1404.796770 1496.007740,1394.589989 1535.438174,1421.370213 1707.350970,1185.260817 1707.717557,1176.549625 1705.894977,1168.936245 1553.348456,1044.558793 1359.887563,1306.376716"/>
    <poly id="1219849108" type="commercial" color="209,209,204" fill="1" layer="-3.00" shape="1452.861036,1534.788849 1535.438174,1421.370213 1496.007740,1394.589989 1488.227006,1404.796770 1454.170304,1449.473719 1431.449766,1433.375048 1390.347786,1489.846272 1452.861036,1534.788849"/>
    <poly id="1219849111" type="residential" color="235,235,227" fill="1" layer="-3.00" shape="1537.930875,1467.302555 1542.849799,1477.103140 1745.752753,1624.437269 1753.876522,1622.476119 1846.177037,1496.091731 1629.046878,1334.456644 1540.200713,1457.870697 1537.930875,1467.302555"/>
    <poly id="1219849112" type="residential" color="235,235,227" fill="1" layer="-3.00" shape="1629.046878,1334.456644 1846.177037,1496.091731 1936.628188,1372.237876 1937.806712,1367.277883 1935.759815,1358.809871 1740.696929,1197.080731 1731.613285,1196.788796 1726.049478,1199.705287 1629.046878,1334.456644"/>
    <poly id="1219849113" type="residential" color="235,235,227" fill="1" layer="-3.00" shape="1760.410272,1158.536371 1760.404309,1174.305538 1948.766755,1326.200311 1983.671694,1288.694669 1973.621384,1133.706606 1976.775326,1100.349602 1866.899861,1022.114695 1856.776654,1024.896142 1760.410272,1158.536371"/>
    <poly id="1219849114" type="landuse" color="194,194,130" fill="1" layer="-3.00" shape="1873.779381,995.828052 1875.885797,1007.358903 1985.319272,1087.779908 1993.036242,1087.783051 2007.803783,1003.916206 2053.853477,799.868247 2041.226581,789.032117 2022.279346,789.368312 1873.779381,995.828052"/>
    <poly id="1219849117" type="residential" color="235,235,227" fill="1" layer="-3.00" shape="1733.765977,738.995557 1675.692888,864.639012 1799.748081,953.663152 1841.042672,883.833120 1869.057626,836.436690 1733.765977,738.995557"/>
    <poly id="1219849118" type="amenity" color="237,199,199" fill="1" layer="-1.00" shape="1841.042672,883.833120 1896.318900,923.660546 1939.738463,864.629478 1895.549628,834.327548 1885.300701,848.139552 1869.057626,836.436690 1841.042672,883.833120"/>
    <poly id="1219849119" type="tourism" color="207,245,201" fill="1" layer="-2.00" shape="1799.748081,953.663152 1842.301399,984.208054 1851.774711,984.211741 1896.318900,923.660546 1841.042672,883.833120 1799.748081,953.663152"/>
    <poly id="1219849122" type="tourism" color="207,245,201" fill="1" layer="-2.00" shape="1791.256162,966.321843 1695.902659,1122.590495 1723.681974,1145.560998 1730.862693,1145.075405 1738.528720,1142.359457 1834.322357,1012.791425 1836.055213,1006.144855 1833.584352,997.266112 1791.256162,966.321843"/>
    <poly id="1219849123" type="residential" color="235,235,227" fill="1" layer="-3.00" shape="1574.050572,1021.816780 1695.902659,1122.590495 1791.256162,966.321843 1674.795712,881.151359 1668.116541,881.648284 1661.928622,887.305605 1572.816393,1013.437934 1574.050572,1021.816780"/>
    <poly id="1219849129" type="residential" color="235,235,227" fill="1" layer="-3.00" shape="1763.050026,286.905736 1713.533478,356.766344 1391.617827,868.090889 1393.283269,881.086295 1425.285202,907.208747 1479.830062,814.687453 1503.353989,789.094242 1563.784659,694.056511 1588.330299,667.986738 1675.243836,532.620951 1767.830818,388.424912 1748.568070,373.980150 1794.137554,309.023222 1763.050026,286.905736"/>
    <poly id="1219849132" type="residential" color="235,235,227" fill="1" layer="-3.00" shape="1425.285202,907.208747 1546.458159,1006.126660 1557.610043,1005.486943 1566.730104,1001.295409 1654.837640,878.325358 1712.563464,754.734604 1588.330299,667.986738 1563.784659,694.056511 1503.353989,789.094242 1479.830062,814.687453 1425.285202,907.208747"/>
    <poly id="488183683" type="building" color="255,230,230" fill="1" layer="-1.00" shape="1354.555877,970.051136 1350.963300,976.885858 1362.407195,982.848810 1358.736706,989.827767 1373.813545,997.689552 1379.033617,987.770347 1366.214401,981.085599 1369.876245,974.117741 1357.515447,967.677296 1361.298486,960.476432 1348.012108,953.558518 1342.618912,963.821701 1354.555877,970.051136"/>
    <poly id="488183697" type="building" color="255,230,230" fill="1" layer="-1.00" shape="1423.747334,1055.722464 1434.645580,1063.005910 1439.570663,1055.683398 1428.672411,1048.399944 1423.747334,1055.722464"/>
    <poly id="488183731" type="building" color="255,230,230" fill="1" layer="-1.00" shape="1592.632484,1001.115956 1584.444652,1011.233713 1606.015018,1028.575293 1614.211512,1018.457561 1592.632484,1001.115956"/>
    <poly id="488183749" type="building" color="255,230,230" fill="1" layer="-1.00" shape="1407.941006,1134.518624 1442.269857,1158.222736 1449.099002,1148.415092 1414.761479,1124.710947 1407.941006,1134.518624"/>
    <poly id="488183751" type="building" color="255,230,230" fill="1" layer="-1.00" shape="1353.253181,1064.821062 1395.948664,1087.484564 1401.869841,1076.422591 1359.174315,1053.759057 1353.253181,1064.821062"/>
    <poly id="488183755" type="building" color="255,230,230" fill="1" layer="-1.00" shape="1385.899734,1128.041620 1392.360708,1132.638013 1398.981995,1123.396215 1392.512366,1118.799814 1385.899734,1128.041620"/>
    <poly id="488183758" type="building" color="255,230,230" fill="1" layer="-1.00" shape="1504.365201,942.269634 1531.508035,957.992739 1537.238733,948.173693 1510.095877,932.450569 1504.365201,942.269634"/>
    <poly id="488183800" type="building" color="255,230,230" fill="1" layer="-1.00" shape="1386.701144,1163.752781 1419.870131,1189.065512 1427.157620,1179.602016 1393.979970,1154.278154 1386.701144,1163.752781"/>
    <poly id="488183816" type="building" color="255,230,230" fill="1" layer="-1.00" shape="1563.062145,1123.130621 1598.098575,1150.764083 1605.715106,1141.178801 1570.687311,1113.545308 1563.062145,1123.130621"/>
    <poly id="488183823" type="building" color="255,230,230" fill="1" layer="-1.00" shape="1427.555161,1103.563909 1463.285125,1128.644639 1470.183514,1118.892523 1434.462179,1093.811764 1427.555161,1103.563909"/>
    <poly id="488183824" type="building" color="255,230,230" fill="1" layer="-1.00" shape="1337.117755,1093.590934 1378.653934,1116.020926 1384.375906,1105.502638 1342.848339,1083.072619 1337.117755,1093.590934"/>
    <poly id="488183825" type="building" color="255,230,230" fill="1" layer="-1.00" shape="1363.479374,1195.860531 1398.629490,1220.951878 1405.666144,1211.177555 1370.516006,1186.086177 1363.479374,1195.860531"/>
    <poly id="488183826" type="building" color="255,230,230" fill="1" layer="-1.00" shape="1369.644491,1152.882968 1375.534575,1157.168437 1384.700355,1144.698171 1378.818922,1140.401600 1369.644491,1152.882968"/>
    <poly id="488183884" type="building" color="255,230,230" fill="1" layer="-1.00" shape="1595.172276,890.421995 1623.127849,907.532860 1630.009836,896.371533 1602.054239,879.260644 1595.172276,890.421995"/>
    <poly id="488183888" type="building" color="255,230,230" fill="1" layer="-1.00" shape="1901.499437,1277.409090 1929.104757,1299.947464 1938.902547,1288.055148 1911.297219,1265.505643 1901.499437,1277.409090"/>
    <poly id="488183892" type="building" color="255,230,230" fill="1" layer="-1.00" shape="1412.361437,1083.794650 1422.455046,1091.188783 1428.816647,1082.590564 1418.723037,1075.185325 1412.361437,1083.794650"/>
    <poly id="488183916" type="building" color="255,230,230" fill="1" layer="-1.00" shape="1388.779836,999.658700 1435.532135,1025.098067 1441.254220,1014.668599 1394.501877,989.229200 1388.779836,999.658700"/>
    <poly id="488183941" type="building" color="255,230,230" fill="1" layer="-1.00" shape="1609.809577,1158.514148 1646.809134,1187.180578 1655.594206,1175.942280 1618.585981,1147.264710 1609.809577,1158.514148"/>
    <poly id="488183944" type="building" color="255,230,230" fill="1" layer="-1.00" shape="1449.963970,1072.255078 1486.610646,1098.490336 1493.465742,1089.004559 1456.810393,1062.769267 1449.963970,1072.255078"/>
    <poly id="488183948" type="building" color="255,230,230" fill="1" layer="-1.00" shape="1564.991248,927.620283 1596.891245,946.352646 1603.323181,935.479662 1571.423155,916.747274 1564.991248,927.620283"/>
    <poly id="488183977" type="building" color="255,230,230" fill="1" layer="-1.00" shape="1449.513706,1022.328481 1464.364591,1032.731630 1471.089958,1023.212499 1456.239064,1012.809338 1449.513706,1022.328481"/>
    <poly id="488183987" type="building" color="255,230,230" fill="1" layer="-1.00" shape="1322.640999,1371.483196 1370.313993,1405.933445 1377.661984,1395.848474 1329.988961,1361.398181 1322.640999,1371.483196"/>
    <poly id="488183990" type="building" color="255,230,230" fill="1" layer="-1.00" shape="1371.249451,1033.976654 1414.291067,1056.751341 1421.103955,1043.980707 1378.070945,1021.194889 1371.249451,1033.976654"/>
    <poly id="488183991" type="building" color="255,230,230" fill="1" layer="-1.00" shape="1378.200583,1415.302109 1415.088198,1441.315183 1421.804483,1431.862584 1384.916846,1405.849479 1378.200583,1415.302109"/>
    <poly id="488183993" type="building" color="255,230,230" fill="1" layer="-1.00" shape="1398.088433,1104.819151 1408.528116,1112.102410 1414.257988,1103.958954 1403.818300,1096.675688 1398.088433,1104.819151"/>
    <poly id="488183994" type="building" color="255,230,230" fill="1" layer="-1.00" shape="1524.686419,895.712710 1553.100738,912.590443 1559.783637,901.428984 1531.360640,884.551224 1524.686419,895.712710"/>
    <poly id="488183998" type="building" color="255,230,230" fill="1" layer="-1.00" shape="1688.098532,1077.532847 1679.426004,1088.138606 1701.229407,1105.824549 1709.901946,1095.218814 1688.098532,1077.532847"/>
    <poly id="488184003" type="building" color="255,230,230" fill="1" layer="-1.00" shape="1471.896184,1043.720458 1508.205876,1068.923657 1515.381389,1058.672302 1479.071673,1033.469070 1471.896184,1043.720458"/>
    <poly id="488184013" type="building" color="255,230,230" fill="1" layer="-1.00" shape="1626.276816,1027.827972 1617.734138,1038.289581 1667.836641,1078.868162 1676.379342,1068.406607 1626.276816,1027.827972"/>
    <poly id="488184017" type="building" color="255,230,230" fill="1" layer="-1.00" shape="1436.625681,1040.468100 1447.065297,1048.095424 1452.570088,1040.639949 1442.130470,1033.001521 1436.625681,1040.468100"/>
    <poly id="488184031" type="building" color="255,230,230" fill="1" layer="-1.00" shape="1340.846706,1226.015428 1376.230190,1251.561739 1383.197514,1241.987123 1347.822660,1216.440784 1340.846706,1226.015428"/>
    <poly id="488184042" type="building" color="255,230,230" fill="1" layer="-1.00" shape="1410.325966,857.665714 1434.164138,874.130893 1441.582106,863.491152 1427.405489,853.698623 1454.463483,814.834168 1444.801886,808.161462 1410.325966,857.665714"/>
    <poly id="488184054" type="building" color="255,230,230" fill="1" layer="-1.00" shape="1459.679667,893.359925 1462.813147,888.578085 1455.417715,883.781569 1452.292885,888.574512 1446.791717,885.010439 1441.026817,893.830787 1462.252981,907.587448 1468.017895,898.767114 1459.679667,893.359925"/>
    <poly id="488184070" type="building" color="255,230,230" fill="1" layer="-1.00" shape="1484.416642,911.989523 1483.040223,914.408247 1477.616775,911.354651 1472.812289,919.842389 1499.955424,935.099301 1504.768578,926.622680 1498.895357,923.313678 1500.263128,920.894953 1484.416642,911.989523"/>
    <poly id="488184077" type="building" color="255,230,230" fill="1" layer="-1.00" shape="1560.684047,973.150697 1563.255029,968.890268 1556.854314,965.048369 1554.283335,969.308800 1547.605828,965.300352 1541.537649,975.330120 1563.689281,988.632394 1569.757477,978.602643 1560.684047,973.150697"/>
    <poly id="488184106" type="building" color="255,230,230" fill="1" layer="-1.00" shape="1505.964725,870.104907 1507.652741,867.320086 1493.138431,858.603753 1491.450418,861.388576 1484.279752,857.080389 1478.748271,866.222609 1508.209350,883.910635 1513.749505,874.768438 1505.964725,870.104907"/>
    <poly id="875439634" type="tourism" color="207,245,201" fill="1" layer="-2.00" shape="1597.770417,1995.896521 1552.689300,1959.037667 1547.544503,1952.876886 1545.591944,1945.973713 1547.420102,1937.629225 1947.212363,1383.805445 1954.645014,1380.201834 1962.915038,1381.004172 2017.186621,1434.637042 1832.849615,1687.846885 1597.770417,1995.896521"/>
    <poly id="875439638" type="tourism" color="207,245,201" fill="1" layer="-2.00" shape="1962.638973,1336.271096 2002.398316,1296.015384 2024.876122,1374.482076 2036.820941,1400.754167 2032.251929,1403.903895 1962.638973,1336.271096"/>
</additional>
