<?xml version="1.0" encoding="UTF-8"?>

<!-- generated on 2025-04-21 16:24:39 by Eclipse SUMO netedit Version 1.22.0
-->

<additional xmlns:xsi="http://www.w3.org/2001/XMLSchema-instance" xsi:noNamespaceSchemaLocation="http://sumo.dlr.de/xsd/additional_file.xsd">
    <!-- Shapes -->
    <poly id="1227234423" type="residential" color="235,235,227" fill="1" layer="-3.00" shape="82.416883,63.733979 76.094110,72.989670 51.288201,97.968102 29.814041,116.177089 36.186480,124.741316 36.413648,125.406104 36.600678,127.227448 34.588068,130.493341 4.529417,173.266171 -25.370990,217.127080 -29.111079,222.722290 -33.856682,221.790614 -27.624187,236.325945 -27.712140,234.859372 12.804622,177.120343 24.019912,184.536448 25.767541,191.745313 28.057941,188.309937 42.388379,196.896142 51.869222,202.950816 55.891908,205.912937 66.808176,212.098078 89.774903,226.135965 91.512086,235.290417 86.531631,244.910921 77.023283,261.546143 73.369414,268.441121 68.378994,277.038982 64.357181,284.660176 62.329638,288.648808 66.738252,290.473223 103.306421,303.321696 112.388461,286.712928 114.855266,281.763954 123.849892,265.233882 124.328503,264.539943 129.428518,255.107290 112.967230,246.697379 124.611945,225.149840 141.083135,233.815378 235.832190,57.574278 244.992784,40.642586 233.792038,33.959616 229.300502,31.190938 224.400998,28.070511 256.082004,-22.798951 268.657574,-43.288033 248.300400,-54.406172 226.801254,-63.456442 216.557550,-67.769712 212.803003,-63.608617 207.714565,-58.211612 205.428332,-55.832463 204.288548,-55.054248 195.453502,-45.440620 189.067437,-38.863626 187.260410,-37.122823 176.039842,-24.762176 160.612322,-8.636155 141.484936,-27.103124 100.613386,2.223488 104.544330,7.821259 112.630634,19.403704 108.174574,22.515635 101.576182,27.671845 71.433487,49.978826 74.519340,54.150776 82.416883,63.733979"/>
    <poly id="70663544" type="building" color="255,230,230" fill="1" layer="-1.00" shape="135.115307,236.497418 131.072945,244.285516 121.234031,239.201392 125.305582,231.390767 130.347258,234.020569 135.115307,236.497418"/>
    <poly id="70664696" type="building" color="255,230,230" fill="1" layer="-1.00" shape="204.972485,282.582686 206.869065,278.728791 208.717337,279.711239 206.694762,283.466313 204.972485,282.582686"/>
    <poly id="70664977" type="building" color="255,230,230" fill="1" layer="-1.00" shape="149.700653,241.101532 155.800677,244.410244 160.998719,247.238648 159.878872,249.295127 160.936477,249.896206 159.137978,253.248894 158.080591,252.670047 156.794759,255.050543 153.807753,253.445594 153.265780,254.429191 146.714560,250.858092 147.191325,249.975186 145.394510,248.992254 149.700653,241.101532"/>
    <poly id="70665119" type="building" color="255,230,230" fill="1" layer="-1.00" shape="178.235134,204.091860 180.955782,205.532674 178.103580,210.941183 180.647184,212.328144 178.778601,216.037253 169.685161,211.223673 174.538528,202.126986 178.235134,204.091860"/>
    <poly id="70665180" type="building" color="255,230,230" fill="1" layer="-1.00" shape="208.942794,274.939866 205.172054,272.908996 209.182401,265.599293 212.162249,267.226575 213.152240,265.427066 213.862243,265.831449 208.942794,274.939866"/>
    <poly id="70665381" type="building" color="255,230,230" fill="1" layer="-1.00" shape="150.330000,210.750000 147.320000,217.990000 141.990000,215.830000 136.290000,212.630000 141.290000,202.430000 148.420000,205.290000 152.350000,206.550000 149.470000,214.090000"/>
    <poly id="70665388" type="building" color="255,230,230" fill="1" layer="-1.00" shape="146.749510,275.459543 141.829089,284.456862 133.754055,279.989111 130.019624,277.913467 132.261463,274.022814 136.194888,276.140978 138.809124,271.223922 146.749510,275.459543"/>
    <poly id="70665408" type="building" color="255,230,230" fill="1" layer="-1.00" shape="128.088737,254.231057 129.482471,251.604924 130.872315,252.336147 129.478145,254.917816 128.088737,254.231057"/>
    <poly id="70665701" type="building" color="255,230,230" fill="1" layer="-1.00" shape="190.416523,282.469387 192.721869,278.300214 195.065686,279.566849 194.654232,280.360177 192.826742,283.757606 190.416523,282.469387"/>
    <poly id="70666297" type="building" color="255,230,230" fill="1" layer="-1.00" shape="192.112134,236.273027 193.773759,233.210730 201.174921,237.207131 196.963978,245.063530 189.533299,241.056308 192.112134,236.273027"/>
    <poly id="70666339" type="building" color="255,230,230" fill="1" layer="-1.00" shape="174.100312,273.835541 170.632919,271.990713 172.841784,267.733540 171.821388,267.176563 173.691472,263.623073 182.274029,268.097032 180.303052,271.862728 181.700239,272.593891 180.169262,275.477043 178.845834,274.767392 178.203406,276.007659 174.100312,273.835541"/>
    <poly id="70666494" type="building" color="255,230,230" fill="1" layer="-1.00" shape="144.985393,268.050699 146.784532,264.764702 146.577532,264.655559 150.212369,258.060975 153.540051,259.907158 153.980917,259.113539 155.740958,260.096834 155.235538,261.057839 156.928957,261.997318 153.366567,268.480019 152.989447,268.272489 151.226313,271.480313 144.985393,268.050699"/>
    <poly id="70666679" type="building" color="255,230,230" fill="1" layer="-1.00" shape="164.800000,220.200000 167.350000,215.880000 174.910000,220.050000 169.800000,228.180000 162.530000,224.480000"/>
    <poly id="70666840" type="building" color="255,230,230" fill="1" layer="-1.00" shape="202.867532,218.514116 207.789741,209.683591 208.337093,210.000629 216.138870,214.348874 217.292187,214.960144 214.443613,219.990623 212.369424,223.735081 202.867532,218.514116"/>
    <poly id="70667166" type="building" color="255,230,230" fill="1" layer="-1.00" shape="204.964588,282.527178 203.169750,281.744314 205.042636,277.723897 206.869065,278.728791 204.964588,282.527178"/>
    <poly id="70667765" type="building" color="255,230,230" fill="1" layer="-1.00" shape="171.822220,285.297169 175.252726,287.131242 172.298706,292.651921 168.868203,290.817850 163.204512,287.749425 166.188051,282.239569 171.822220,285.297169"/>
    <poly id="70667827" type="building" color="255,230,230" fill="1" layer="-1.00" shape="208.337093,210.000629 213.149769,201.249000 220.958691,205.574947 216.138870,214.348874 208.337093,210.000629"/>
    <poly id="70668156" type="building" color="255,230,230" fill="1" layer="-1.00" shape="201.766247,292.396955 203.846778,288.552376 202.190579,287.656987 203.599264,285.052961 215.909781,291.702779 214.421612,294.452099 213.660026,294.037103 213.176009,294.931192 214.780400,295.793740 213.256115,298.610116 211.585105,297.703752 201.766247,292.396955"/>
    <poly id="70668559" type="building" color="255,230,230" fill="1" layer="-1.00" shape="171.280552,284.057373 171.548296,283.610075 166.868007,281.076752 170.327449,274.595067 172.907252,275.926085 174.100312,273.835541 178.203406,276.007659 179.630442,276.782998 174.740257,285.868926 171.280552,284.057373"/>
    <poly id="70669316" type="building" color="255,230,230" fill="1" layer="-1.00" shape="212.369424,223.735081 214.443613,219.990623 216.136817,220.907888 216.542776,222.560342 215.460217,224.672029 214.506477,224.914812 212.369424,223.735081"/>
    <poly id="70669573" type="building" color="255,230,230" fill="1" layer="-1.00" shape="127.850000,197.750000 135.220000,200.710000 131.180000,209.670000 127.320000,207.800000 124.060000,206.240000 126.550000,201.090000"/>
    <poly id="70670133" type="building" color="255,230,230" fill="1" layer="-1.00" shape="214.031124,277.836093 208.942794,274.939866 213.862243,265.831449 219.119285,268.681562 214.031124,277.836093"/>
    <poly id="70670170" type="building" color="255,230,230" fill="1" layer="-1.00" shape="216.779332,260.288920 215.692318,259.688119 216.675067,257.899798 213.725067,256.316690 217.662225,249.041061 221.699242,251.224974 216.779332,260.288920"/>
    <poly id="70670778" type="building" color="255,230,230" fill="1" layer="-1.00" shape="141.829089,284.456862 135.825516,295.499193 127.780453,291.086742 133.754055,279.989111 141.829089,284.456862"/>
    <poly id="70690610" type="building" color="255,230,230" fill="1" layer="-1.00" shape="204.964588,282.527178 206.694762,283.466313 208.717337,279.711239 212.022382,281.502093 220.310723,285.978987 218.779187,288.806549 217.189503,287.943856 216.705377,288.826828 217.289490,289.143507 215.909781,291.702779 203.599264,285.052961 204.964588,282.527178"/>
    <poly id="70690723" type="building" color="255,230,230" fill="1" layer="-1.00" shape="210.706717,246.240910 208.296922,244.997147 207.994142,245.622657 200.905126,241.956703 203.989944,236.268007 213.181415,241.336372 210.706717,246.240910"/>
    <poly id="70690734" type="building" color="255,230,230" fill="1" layer="-1.00" shape="227.771134,284.760997 218.847206,279.967917 220.240975,277.341807 220.780749,277.636686 224.110166,271.389762 232.487628,275.954738 227.771134,284.760997"/>
    <poly id="70691063" type="building" color="255,230,230" fill="1" layer="-1.00" shape="221.733125,262.964131 216.779332,260.288920 221.699242,251.224974 226.823160,253.998577 221.733125,262.964131"/>
    <poly id="70691301" type="building" color="255,230,230" fill="1" layer="-1.00" shape="196.695264,227.367991 195.504742,226.712621 199.311374,219.627244 206.571626,223.502744 202.595737,230.578654 196.695264,227.367991"/>
    <poly id="70691536" type="building" color="255,230,230" fill="1" layer="-1.00" shape="189.569237,257.509028 185.393792,265.231686 177.556378,260.995003 181.732033,253.294571 184.748883,254.943709 185.326760,253.870829 188.010395,255.289774 187.432626,256.373770 189.569237,257.509028"/>
    <poi id="8919808508" type="amenity" color="237,199,199" layer="4.00" x="165.81" y="249.13"/>
</additional>
