<?xml version="1.0" encoding="UTF-8"?>

<!-- generated on 2025-07-22 17:09:22 by Eclipse SUMO netedit Version 1.23.1
-->

<additional xmlns:xsi="http://www.w3.org/2001/XMLSchema-instance" xsi:noNamespaceSchemaLocation="http://sumo.dlr.de/xsd/additional_file.xsd">
    <!-- Shapes -->
    <poly id="208805203" type="amenity" color="237,199,199" fill="1" layer="-1.00" shape="973.803208,-235.982098 1041.841519,-235.982804 1109.054405,-235.986997 1214.218750,-230.828415 1242.208061,-229.455785 1305.755289,-224.210016 1320.716016,-222.982241 1481.434965,-209.786424 1740.360315,-192.961241 1733.904894,-93.325428 1703.859268,228.583112 1666.407618,727.738945 1664.218433,756.762722 1758.749591,767.890156 1783.413091,819.477580 1781.388960,851.996561 1774.523338,951.325143 1390.169824,862.483896 1399.646967,727.422785 1400.665098,712.983647 1401.680935,700.287294 1093.257584,681.174545 1041.221727,610.939860 1022.965022,587.095800 954.337682,497.943216 926.422794,461.005310 918.316707,450.273557 933.085847,265.070565 936.123507,227.070189 945.121731,114.557517 972.014998,-214.110190 973.803208,-235.982098"/>
    <poly id="208805203#1" type="military" color="153,153,92" fill="1" layer="-3.00" shape="973.803208,-235.982098 1041.841519,-235.982804 1109.054405,-235.986997 1214.218750,-230.828415 1242.208061,-229.455785 1305.755289,-224.210016 1320.716016,-222.982241 1481.434965,-209.786424 1740.360315,-192.961241 1733.904894,-93.325428 1703.859268,228.583112 1666.407618,727.738945 1664.218433,756.762722 1758.749591,767.890156 1783.413091,819.477580 1781.388960,851.996561 1774.523338,951.325143 1390.169824,862.483896 1399.646967,727.422785 1400.665098,712.983647 1401.680935,700.287294 1093.257584,681.174545 1041.221727,610.939860 1022.965022,587.095800 954.337682,497.943216 926.422794,461.005310 918.316707,450.273557 933.085847,265.070565 936.123507,227.070189 945.121731,114.557517 972.014998,-214.110190 973.803208,-235.982098"/>
    <poly id="839857857" type="residential" color="235,235,227" fill="1" layer="-3.00" shape="863.034139,-395.707280 974.401189,-391.903539 972.014998,-214.110190 936.123507,227.070189 858.858651,224.197779 863.034139,-395.707280"/>
    <poly id="839857858" type="residential" color="235,235,227" fill="1" layer="-3.00" shape="727.667222,322.111761 729.062420,184.476758 811.960963,185.412768 809.834002,323.220467 727.667222,322.111761"/>
    <poly id="999863892" type="natural" color="140,196,107" fill="1" layer="-4.00" shape="437.875826,518.326011 446.842259,421.886242 481.188978,427.686101 528.192376,410.200058 550.194154,405.138676 751.172850,420.494137 633.689049,502.019726 606.834100,512.617075 437.875826,518.326011"/>
</additional>
