<additional xmlns:xsi="http://www.w3.org/2001/XMLSchema-instance" xsi:noNamespaceSchemaLocation="http://sumo.dlr.de/xsd/additional_file.xsd">
    <laneAreaDetector file="e2.output.xml" freq="60" friendlyPos="x" id="e2det--INT1--741602130.216--741602130.216_0--s" lane="741602130.216_0" pos="124.78999999999999" length="45"/>
    <laneAreaDetector file="e2.output.xml" freq="60" friendlyPos="x" id="e2det--INT1--741602130.216--741602130.216_1--s" lane="741602130.216_1" pos="124.78999999999999" length="45"/>
    <laneAreaDetector file="e2.output.xml" freq="60" friendlyPos="x" id="e2det--INT1--741602130.216--741602130.216_2--l" lane="741602130.216_2" pos="124.78999999999999" length="45"/>
    <laneAreaDetector file="e2.output.xml" freq="60" friendlyPos="x" id="e2det--INT1--657921284.293--657921284.293_0--r" lane="657921284.293_0" pos="123.12" length="45"/>
    <laneAreaDetector file="e2.output.xml" freq="60" friendlyPos="x" id="e2det--INT1--657921284.293--657921284.293_1--l" lane="657921284.293_1" pos="123.12" length="45"/>
    <laneAreaDetector file="e2.output.xml" freq="60" friendlyPos="x" id="e2det--INT1--657921284.293--657921284.293_2--l" lane="657921284.293_2" pos="123.12" length="45"/>
    <laneAreaDetector file="e2.output.xml" freq="60" friendlyPos="x" id="e2det--INT1--657921289.337--657921289.337_0--r" lane="657921289.337_0" pos="138.58" length="45"/>
    <laneAreaDetector file="e2.output.xml" freq="60" friendlyPos="x" id="e2det--INT1--657921289.337--657921289.337_1--s" lane="657921289.337_1" pos="138.58" length="45"/>
    <laneAreaDetector file="e2.output.xml" freq="60" friendlyPos="x" id="e2det--INT1--657921289.337--657921289.337_2--s" lane="657921289.337_2" pos="138.58" length="45"/>
</additional>
