<?xml version="1.0" encoding="UTF-8"?>

<!-- generated on 2025-06-24 10:04:51 by Eclipse SUMO polyconvert Version 1.22.0
<polyconvertConfiguration xmlns:xsi="http://www.w3.org/2001/XMLSchema-instance" xsi:noNamespaceSchemaLocation="http://sumo.dlr.de/xsd/polyconvertConfiguration.xsd">

    <input>
        <net-file value="/home/china/桌面/tscvla/sim_envs/Beijing_Beishahe/env/map.net.xml"/>
        <osm-files value="/home/china/桌面/tscvla/sim_envs/Beijing_Beishahe/map.osm"/>
        <osm.merge-relations value="1"/>
        <type-file value="/home/china/桌面/TransSimHub/tshub/sumo_tools/./osm_build_type/poly.typ.xml"/>
    </input>

    <output>
        <output-file value="/home/china/桌面/tscvla/sim_envs/Beijing_Beishahe/env/map.poly.xml"/>
    </output>

    <building_defaults>
        <discard value="true"/>
    </building_defaults>

</polyconvertConfiguration>
-->

<additional xmlns:xsi="http://www.w3.org/2001/XMLSchema-instance" xsi:noNamespaceSchemaLocation="http://sumo.dlr.de/xsd/additional_file.xsd">
    <location netOffset="-436434.56,-4444312.25" convBoundary="-89.00,-36.03,1497.48,1180.20" origBoundary="116.252613,40.146443,116.271271,40.157474" projParameter="+proj=utm +zone=50 +ellps=WGS84 +datum=WGS84 +units=m +no_defs"/>

    <poly id="353022942" type="amenity" color="237,199,199" fill="1" layer="-1.00" shape="300.752388,865.078589 463.193337,441.835160 487.108123,426.095453 493.907840,406.968567 500.139427,388.146129 488.835380,365.573647 606.921739,55.526557 630.763598,44.150341 991.530454,155.313808 1001.449184,175.323210 995.451432,192.722438 1011.789104,197.859993 1030.620573,203.787293 1049.452012,209.714640 1058.052094,212.418662 1064.476951,195.149160 1085.150586,185.876282 1195.023160,222.721873 1203.602511,230.154922 1217.157301,234.594333 1223.220041,246.743528 1217.471137,264.418029 1219.317404,265.190935 1225.097999,266.874951 1231.145101,268.856482 1232.425922,269.234441 1237.949804,253.193536 1249.611382,245.993369 1265.156153,252.114813 1277.574473,251.990398 1430.414472,312.207013 1444.511461,328.774905 1491.541695,345.694240 1497.476435,363.072895 1389.937792,700.047976 1370.305135,700.087211 1364.787048,714.751556 1361.969626,722.234064 1358.993945,730.150782 1353.409137,744.982189 1366.868332,760.711562 1361.364462,788.496258 1304.622363,965.656298 1299.772838,980.792512 1287.341947,1019.601311 1241.846240,1161.648159 1215.579260,1180.202156 1001.257383,1110.241631 993.337331,1093.867673 974.430344,1086.786700 949.063422,1078.205199 933.148179,1085.807387 646.506032,992.889980 616.353069,983.450262 311.363674,888.344811 300.752388,865.078589"/>
    <poly id="683349458" type="amenity" color="237,199,199" fill="1" layer="-1.00" shape="-89.004965,694.927904 107.025395,763.701489 147.981164,640.123100 315.898116,689.001879 421.219786,416.621403 416.490588,402.119546 283.300698,359.930038 278.899657,370.445471 265.654957,366.460250 201.771139,347.247513 206.503399,335.608134 77.461857,294.730607 -3.900575,458.243211 -89.004965,694.927904"/>
    <poly id="683350574" type="building" color="255,230,230" fill="1" layer="-1.00" shape="265.890858,628.879252 328.999536,650.430018 395.635774,456.873491 345.484270,439.742795 339.180799,458.066460 375.237490,470.375182 362.314162,507.902030 327.641499,496.070217 321.005318,515.340202 351.031015,525.590163 339.263972,559.777325 294.588573,544.521567 286.888221,566.897452 327.335189,580.712164 315.892533,613.942037 275.753264,600.235818 265.890858,628.879252"/>
    <poly id="683360754" type="amenity" color="237,199,199" fill="1" layer="-1.00" shape="132.992441,257.290047 125.017998,238.819473 157.433731,142.741595 176.041128,93.333943 199.569647,47.670327 213.639171,-23.899706 223.904571,-36.029381 555.077703,61.474802 497.199175,219.302705 443.504062,365.729599 132.992441,257.290047"/>
    <poly id="901928492" type="natural" color="140,196,107" fill="1" layer="-4.00" shape="566.521639,563.343331 569.609397,545.446239 595.051660,461.472085 500.457863,429.425268 484.697613,446.539988 466.579291,454.616607 438.846920,530.396142 566.521639,563.343331"/>
    <poly id="901928493" type="natural" color="140,196,107" fill="1" layer="-4.00" shape="603.828752,424.035657 624.930599,364.995575 639.416517,329.787271 661.943364,305.823301 694.681113,279.521222 737.695504,258.783990 652.168418,223.274417 647.742410,238.030119 569.113415,212.643045 512.367196,358.018095 517.094591,379.479873 513.792319,393.094078 603.828752,424.035657"/>
    <poi id="12064595522" type="shop" color="237,199,255" layer="4.00" x="378.78" y="489.20"/>
</additional>
