<?xml version="1.0" encoding="UTF-8"?>

<!-- generated on 2026-02-27T16:23:26.004693+08:00 by Eclipse SUMO jtrrouter 1.25.0
<jtrrouterConfiguration xmlns:xsi="http://www.w3.org/2001/XMLSchema-instance" xsi:noNamespaceSchemaLocation="http://sumo.dlr.de/xsd/jtrrouterConfiguration.xsd">

    <input>
        <net-file value="/home/wmn/Coding_Project/TrafficAlpha/SingleTSC_TranSimHub/exp_junction/Beijing_Pinganli/./networks/normal.net.xml"/>
        <route-files value="/home/wmn/Coding_Project/TrafficAlpha/SingleTSC_TranSimHub/exp_junction/Beijing_Pinganli/./testflow.trip.xml"/>
        <turn-ratio-files value="/home/wmn/Coding_Project/TrafficAlpha/SingleTSC_TranSimHub/exp_junction/Beijing_Pinganli/./testflow.turndefs.xml"/>
    </input>

    <output>
        <output-file value="/home/wmn/Coding_Project/TrafficAlpha/SingleTSC_TranSimHub/exp_junction/Beijing_Pinganli/./routes/fluctuating_commuter.rou.xml"/>
    </output>

    <processing>
        <randomize-flows value="True"/>
        <accept-all-destinations value="True"/>
    </processing>

    <defaults>
        <departlane value="random"/>
    </defaults>

    <report>
        <no-warnings value="true"/>
    </report>

    <random_number>
        <seed value="777"/>
    </random_number>

</jtrrouterConfiguration>
-->

<routes xmlns:xsi="http://www.w3.org/2001/XMLSchema-instance" xsi:noNamespaceSchemaLocation="http://sumo.dlr.de/xsd/routes_file.xsd">
    <vType id="background" length="5.00" color="220,220,220" tau="1.0"/>
    <vehicle id="156465483#0.660__0__background.0" type="background" depart="3.58" departLane="random">
        <route edges="156465483#0.660 30065037"/>
    </vehicle>
    <vehicle id="156465483#0.660__0__background.1" type="background" depart="6.54" departLane="random">
        <route edges="156465483#0.660 25109171#0"/>
    </vehicle>
    <vehicle id="156465483#0.660__0__background.2" type="background" depart="6.80" departLane="random">
        <route edges="156465483#0.660 30065037"/>
    </vehicle>
    <vehicle id="33610069#0.1159__0__background.0" type="background" depart="7.71" departLane="random">
        <route edges="33610069#0.1159 -156465483#2"/>
    </vehicle>
    <vehicle id="33610069#0.1159__0__background.1" type="background" depart="10.82" departLane="random">
        <route edges="33610069#0.1159 -156465483#2"/>
    </vehicle>
    <vehicle id="169221931#0.91__0__background.0" type="background" depart="10.88" departLane="random">
        <route edges="169221931#0.91 25109171#0"/>
    </vehicle>
    <vehicle id="156465483#0.660__0__background.3" type="background" depart="11.03" departLane="random">
        <route edges="156465483#0.660 156465481#0"/>
    </vehicle>
    <vehicle id="33610069#0.1159__0__background.2" type="background" depart="12.32" departLane="random">
        <route edges="33610069#0.1159 30065037"/>
    </vehicle>
    <vehicle id="-156465481#3.628.100__0__background.0" type="background" depart="15.93" departLane="random">
        <route edges="-156465481#3.628.100 30065037"/>
    </vehicle>
    <vehicle id="156465483#0.660__0__background.4" type="background" depart="17.37" departLane="random">
        <route edges="156465483#0.660 25109171#0"/>
    </vehicle>
    <vehicle id="33610069#0.1159__0__background.3" type="background" depart="19.28" departLane="random">
        <route edges="33610069#0.1159 156465481#0"/>
    </vehicle>
    <vehicle id="33610069#0.1159__0__background.4" type="background" depart="20.32" departLane="random">
        <route edges="33610069#0.1159 30065037"/>
    </vehicle>
    <vehicle id="156465483#0.660__0__background.5" type="background" depart="25.90" departLane="random">
        <route edges="156465483#0.660 25109171#0"/>
    </vehicle>
    <vehicle id="169221931#0.91__0__background.1" type="background" depart="26.70" departLane="random">
        <route edges="169221931#0.91 -156465483#2"/>
    </vehicle>
    <vehicle id="33610069#0.1159__0__background.5" type="background" depart="26.95" departLane="random">
        <route edges="33610069#0.1159 30065037"/>
    </vehicle>
    <vehicle id="169221931#0.91__0__background.2" type="background" depart="28.79" departLane="random">
        <route edges="169221931#0.91 25109171#0"/>
    </vehicle>
    <vehicle id="33610069#0.1159__0__background.6" type="background" depart="35.91" departLane="random">
        <route edges="33610069#0.1159 30065037"/>
    </vehicle>
    <vehicle id="-156465481#3.628.100__0__background.1" type="background" depart="36.79" departLane="random">
        <route edges="-156465481#3.628.100 30065037"/>
    </vehicle>
    <vehicle id="-156465481#3.628.100__0__background.2" type="background" depart="40.54" departLane="random">
        <route edges="-156465481#3.628.100 30065037"/>
    </vehicle>
    <vehicle id="156465483#0.660__0__background.6" type="background" depart="40.85" departLane="random">
        <route edges="156465483#0.660 30065037"/>
    </vehicle>
    <vehicle id="33610069#0.1159__0__background.7" type="background" depart="41.30" departLane="random">
        <route edges="33610069#0.1159 156465481#0"/>
    </vehicle>
    <vehicle id="169221931#0.91__0__background.3" type="background" depart="44.46" departLane="random">
        <route edges="169221931#0.91 -156465483#2"/>
    </vehicle>
    <vehicle id="-156465481#3.628.100__0__background.3" type="background" depart="47.92" departLane="random">
        <route edges="-156465481#3.628.100 25109171#0"/>
    </vehicle>
    <vehicle id="33610069#0.1159__0__background.8" type="background" depart="48.23" departLane="random">
        <route edges="33610069#0.1159 30065037"/>
    </vehicle>
    <vehicle id="-156465481#3.628.100__0__background.4" type="background" depart="52.13" departLane="random">
        <route edges="-156465481#3.628.100 30065037"/>
    </vehicle>
    <vehicle id="169221931#0.91__0__background.4" type="background" depart="54.94" departLane="random">
        <route edges="169221931#0.91 -156465483#2"/>
    </vehicle>
    <vehicle id="33610069#0.1159__0__background.9" type="background" depart="56.15" departLane="random">
        <route edges="33610069#0.1159 -156465483#2"/>
    </vehicle>
    <vehicle id="33610069#0.1159__1__background.0" type="background" depart="60.03" departLane="random">
        <route edges="33610069#0.1159 -156465483#2"/>
    </vehicle>
    <vehicle id="-156465481#3.628.100__1__background.0" type="background" depart="60.84" departLane="random">
        <route edges="-156465481#3.628.100 25109171#0"/>
    </vehicle>
    <vehicle id="169221931#0.91__1__background.0" type="background" depart="64.16" departLane="random">
        <route edges="169221931#0.91 25109171#0"/>
    </vehicle>
    <vehicle id="33610069#0.1159__1__background.1" type="background" depart="64.54" departLane="random">
        <route edges="33610069#0.1159 -156465483#2"/>
    </vehicle>
    <vehicle id="-156465481#3.628.100__1__background.1" type="background" depart="65.68" departLane="random">
        <route edges="-156465481#3.628.100 -156465483#2"/>
    </vehicle>
    <vehicle id="156465483#0.660__1__background.0" type="background" depart="65.99" departLane="random">
        <route edges="156465483#0.660 30065037"/>
    </vehicle>
    <vehicle id="156465483#0.660__1__background.1" type="background" depart="67.95" departLane="random">
        <route edges="156465483#0.660 156465481#0"/>
    </vehicle>
    <vehicle id="-156465481#3.628.100__1__background.2" type="background" depart="75.68" departLane="random">
        <route edges="-156465481#3.628.100 -156465483#2"/>
    </vehicle>
    <vehicle id="-156465481#3.628.100__1__background.3" type="background" depart="76.75" departLane="random">
        <route edges="-156465481#3.628.100 25109171#0"/>
    </vehicle>
    <vehicle id="169221931#0.91__1__background.1" type="background" depart="83.35" departLane="random">
        <route edges="169221931#0.91 156465481#0"/>
    </vehicle>
    <vehicle id="156465483#0.660__1__background.2" type="background" depart="85.22" departLane="random">
        <route edges="156465483#0.660 30065037"/>
    </vehicle>
    <vehicle id="33610069#0.1159__1__background.2" type="background" depart="86.23" departLane="random">
        <route edges="33610069#0.1159 30065037"/>
    </vehicle>
    <vehicle id="33610069#0.1159__1__background.3" type="background" depart="86.40" departLane="random">
        <route edges="33610069#0.1159 -156465483#2"/>
    </vehicle>
    <vehicle id="156465483#0.660__1__background.3" type="background" depart="88.29" departLane="random">
        <route edges="156465483#0.660 30065037"/>
    </vehicle>
    <vehicle id="33610069#0.1159__1__background.4" type="background" depart="90.89" departLane="random">
        <route edges="33610069#0.1159 30065037"/>
    </vehicle>
    <vehicle id="33610069#0.1159__1__background.5" type="background" depart="91.08" departLane="random">
        <route edges="33610069#0.1159 30065037"/>
    </vehicle>
    <vehicle id="156465483#0.660__1__background.4" type="background" depart="93.66" departLane="random">
        <route edges="156465483#0.660 30065037"/>
    </vehicle>
    <vehicle id="33610069#0.1159__1__background.6" type="background" depart="99.15" departLane="random">
        <route edges="33610069#0.1159 -156465483#2"/>
    </vehicle>
    <vehicle id="156465483#0.660__1__background.5" type="background" depart="103.19" departLane="random">
        <route edges="156465483#0.660 30065037"/>
    </vehicle>
    <vehicle id="-156465481#3.628.100__1__background.4" type="background" depart="106.02" departLane="random">
        <route edges="-156465481#3.628.100 30065037"/>
    </vehicle>
    <vehicle id="169221931#0.91__1__background.2" type="background" depart="106.02" departLane="random">
        <route edges="169221931#0.91 156465481#0"/>
    </vehicle>
    <vehicle id="156465483#0.660__1__background.6" type="background" depart="108.14" departLane="random">
        <route edges="156465483#0.660 30065037"/>
    </vehicle>
    <vehicle id="33610069#0.1159__1__background.7" type="background" depart="109.14" departLane="random">
        <route edges="33610069#0.1159 30065037"/>
    </vehicle>
    <vehicle id="169221931#0.91__1__background.3" type="background" depart="111.52" departLane="random">
        <route edges="169221931#0.91 25109171#0"/>
    </vehicle>
    <vehicle id="169221931#0.91__1__background.4" type="background" depart="113.45" departLane="random">
        <route edges="169221931#0.91 25109171#0"/>
    </vehicle>
    <vehicle id="33610069#0.1159__1__background.8" type="background" depart="117.89" departLane="random">
        <route edges="33610069#0.1159 30065037"/>
    </vehicle>
    <vehicle id="33610069#0.1159__1__background.9" type="background" depart="119.78" departLane="random">
        <route edges="33610069#0.1159 156465481#0"/>
    </vehicle>
    <vehicle id="169221931#0.91__2__background.0" type="background" depart="120.09" departLane="random">
        <route edges="169221931#0.91 25109171#0"/>
    </vehicle>
    <vehicle id="169221931#0.91__2__background.1" type="background" depart="120.19" departLane="random">
        <route edges="169221931#0.91 156465481#0"/>
    </vehicle>
    <vehicle id="33610069#0.1159__2__background.0" type="background" depart="120.29" departLane="random">
        <route edges="33610069#0.1159 156465481#0"/>
    </vehicle>
    <vehicle id="-156465481#3.628.100__2__background.0" type="background" depart="121.54" departLane="random">
        <route edges="-156465481#3.628.100 30065037"/>
    </vehicle>
    <vehicle id="169221931#0.91__2__background.2" type="background" depart="121.72" departLane="random">
        <route edges="169221931#0.91 25109171#0"/>
    </vehicle>
    <vehicle id="-156465481#3.628.100__2__background.1" type="background" depart="123.43" departLane="random">
        <route edges="-156465481#3.628.100 30065037"/>
    </vehicle>
    <vehicle id="169221931#0.91__2__background.3" type="background" depart="123.47" departLane="random">
        <route edges="169221931#0.91 -156465483#2"/>
    </vehicle>
    <vehicle id="169221931#0.91__2__background.4" type="background" depart="124.84" departLane="random">
        <route edges="169221931#0.91 25109171#0"/>
    </vehicle>
    <vehicle id="33610069#0.1159__2__background.1" type="background" depart="128.46" departLane="random">
        <route edges="33610069#0.1159 30065037"/>
    </vehicle>
    <vehicle id="33610069#0.1159__2__background.2" type="background" depart="128.53" departLane="random">
        <route edges="33610069#0.1159 30065037"/>
    </vehicle>
    <vehicle id="-156465481#3.628.100__2__background.2" type="background" depart="129.31" departLane="random">
        <route edges="-156465481#3.628.100 30065037"/>
    </vehicle>
    <vehicle id="169221931#0.91__2__background.5" type="background" depart="130.17" departLane="random">
        <route edges="169221931#0.91 25109171#0"/>
    </vehicle>
    <vehicle id="-156465481#3.628.100__2__background.3" type="background" depart="131.26" departLane="random">
        <route edges="-156465481#3.628.100 25109171#0"/>
    </vehicle>
    <vehicle id="169221931#0.91__2__background.6" type="background" depart="132.29" departLane="random">
        <route edges="169221931#0.91 156465481#0"/>
    </vehicle>
    <vehicle id="-156465481#3.628.100__2__background.4" type="background" depart="132.41" departLane="random">
        <route edges="-156465481#3.628.100 25109171#0"/>
    </vehicle>
    <vehicle id="-156465481#3.628.100__2__background.5" type="background" depart="133.67" departLane="random">
        <route edges="-156465481#3.628.100 25109171#0"/>
    </vehicle>
    <vehicle id="169221931#0.91__2__background.7" type="background" depart="134.01" departLane="random">
        <route edges="169221931#0.91 25109171#0"/>
    </vehicle>
    <vehicle id="33610069#0.1159__2__background.3" type="background" depart="134.15" departLane="random">
        <route edges="33610069#0.1159 30065037"/>
    </vehicle>
    <vehicle id="156465483#0.660__2__background.0" type="background" depart="134.36" departLane="random">
        <route edges="156465483#0.660 156465481#0"/>
    </vehicle>
    <vehicle id="-156465481#3.628.100__2__background.6" type="background" depart="135.08" departLane="random">
        <route edges="-156465481#3.628.100 25109171#0"/>
    </vehicle>
    <vehicle id="-156465481#3.628.100__2__background.7" type="background" depart="135.59" departLane="random">
        <route edges="-156465481#3.628.100 30065037"/>
    </vehicle>
    <vehicle id="156465483#0.660__2__background.1" type="background" depart="136.26" departLane="random">
        <route edges="156465483#0.660 25109171#0"/>
    </vehicle>
    <vehicle id="-156465481#3.628.100__2__background.8" type="background" depart="136.46" departLane="random">
        <route edges="-156465481#3.628.100 25109171#0"/>
    </vehicle>
    <vehicle id="-156465481#3.628.100__2__background.9" type="background" depart="136.73" departLane="random">
        <route edges="-156465481#3.628.100 -156465483#2"/>
    </vehicle>
    <vehicle id="33610069#0.1159__2__background.4" type="background" depart="137.86" departLane="random">
        <route edges="33610069#0.1159 30065037"/>
    </vehicle>
    <vehicle id="-156465481#3.628.100__2__background.10" type="background" depart="138.84" departLane="random">
        <route edges="-156465481#3.628.100 -156465483#2"/>
    </vehicle>
    <vehicle id="33610069#0.1159__2__background.5" type="background" depart="139.56" departLane="random">
        <route edges="33610069#0.1159 30065037"/>
    </vehicle>
    <vehicle id="-156465481#3.628.100__2__background.11" type="background" depart="140.50" departLane="random">
        <route edges="-156465481#3.628.100 -156465483#2"/>
    </vehicle>
    <vehicle id="169221931#0.91__2__background.8" type="background" depart="143.16" departLane="random">
        <route edges="169221931#0.91 156465481#0"/>
    </vehicle>
    <vehicle id="33610069#0.1159__2__background.6" type="background" depart="144.00" departLane="random">
        <route edges="33610069#0.1159 156465481#0"/>
    </vehicle>
    <vehicle id="156465483#0.660__2__background.2" type="background" depart="144.69" departLane="random">
        <route edges="156465483#0.660 30065037"/>
    </vehicle>
    <vehicle id="33610069#0.1159__2__background.7" type="background" depart="145.38" departLane="random">
        <route edges="33610069#0.1159 30065037"/>
    </vehicle>
    <vehicle id="169221931#0.91__2__background.9" type="background" depart="145.80" departLane="random">
        <route edges="169221931#0.91 25109171#0"/>
    </vehicle>
    <vehicle id="169221931#0.91__2__background.10" type="background" depart="145.86" departLane="random">
        <route edges="169221931#0.91 -156465483#2"/>
    </vehicle>
    <vehicle id="169221931#0.91__2__background.11" type="background" depart="147.35" departLane="random">
        <route edges="169221931#0.91 25109171#0"/>
    </vehicle>
    <vehicle id="33610069#0.1159__2__background.8" type="background" depart="148.54" departLane="random">
        <route edges="33610069#0.1159 30065037"/>
    </vehicle>
    <vehicle id="-156465481#3.628.100__2__background.12" type="background" depart="149.83" departLane="random">
        <route edges="-156465481#3.628.100 25109171#0"/>
    </vehicle>
    <vehicle id="33610069#0.1159__2__background.9" type="background" depart="150.51" departLane="random">
        <route edges="33610069#0.1159 -156465483#2"/>
    </vehicle>
    <vehicle id="33610069#0.1159__2__background.10" type="background" depart="151.76" departLane="random">
        <route edges="33610069#0.1159 156465481#0"/>
    </vehicle>
    <vehicle id="169221931#0.91__2__background.12" type="background" depart="151.85" departLane="random">
        <route edges="169221931#0.91 25109171#0"/>
    </vehicle>
    <vehicle id="33610069#0.1159__2__background.11" type="background" depart="151.94" departLane="random">
        <route edges="33610069#0.1159 -156465483#2"/>
    </vehicle>
    <vehicle id="33610069#0.1159__2__background.12" type="background" depart="152.29" departLane="random">
        <route edges="33610069#0.1159 30065037"/>
    </vehicle>
    <vehicle id="33610069#0.1159__2__background.13" type="background" depart="153.35" departLane="random">
        <route edges="33610069#0.1159 30065037"/>
    </vehicle>
    <vehicle id="33610069#0.1159__2__background.14" type="background" depart="155.15" departLane="random">
        <route edges="33610069#0.1159 -156465483#2"/>
    </vehicle>
    <vehicle id="169221931#0.91__2__background.13" type="background" depart="155.70" departLane="random">
        <route edges="169221931#0.91 -156465483#2"/>
    </vehicle>
    <vehicle id="156465483#0.660__2__background.3" type="background" depart="157.85" departLane="random">
        <route edges="156465483#0.660 156465481#0"/>
    </vehicle>
    <vehicle id="169221931#0.91__2__background.14" type="background" depart="157.85" departLane="random">
        <route edges="169221931#0.91 156465481#0"/>
    </vehicle>
    <vehicle id="169221931#0.91__2__background.15" type="background" depart="159.52" departLane="random">
        <route edges="169221931#0.91 25109171#0"/>
    </vehicle>
    <vehicle id="156465483#0.660__2__background.4" type="background" depart="159.82" departLane="random">
        <route edges="156465483#0.660 25109171#0"/>
    </vehicle>
    <vehicle id="156465483#0.660__2__background.5" type="background" depart="162.11" departLane="random">
        <route edges="156465483#0.660 156465481#0"/>
    </vehicle>
    <vehicle id="156465483#0.660__2__background.6" type="background" depart="162.53" departLane="random">
        <route edges="156465483#0.660 30065037"/>
    </vehicle>
    <vehicle id="33610069#0.1159__2__background.15" type="background" depart="162.62" departLane="random">
        <route edges="33610069#0.1159 -156465483#2"/>
    </vehicle>
    <vehicle id="-156465481#3.628.100__2__background.13" type="background" depart="162.87" departLane="random">
        <route edges="-156465481#3.628.100 25109171#0"/>
    </vehicle>
    <vehicle id="-156465481#3.628.100__2__background.14" type="background" depart="163.28" departLane="random">
        <route edges="-156465481#3.628.100 30065037"/>
    </vehicle>
    <vehicle id="156465483#0.660__2__background.7" type="background" depart="163.32" departLane="random">
        <route edges="156465483#0.660 30065037"/>
    </vehicle>
    <vehicle id="156465483#0.660__2__background.8" type="background" depart="163.99" departLane="random">
        <route edges="156465483#0.660 156465481#0"/>
    </vehicle>
    <vehicle id="156465483#0.660__2__background.9" type="background" depart="164.08" departLane="random">
        <route edges="156465483#0.660 156465481#0"/>
    </vehicle>
    <vehicle id="169221931#0.91__2__background.16" type="background" depart="164.98" departLane="random">
        <route edges="169221931#0.91 -156465483#2"/>
    </vehicle>
    <vehicle id="156465483#0.660__2__background.10" type="background" depart="165.08" departLane="random">
        <route edges="156465483#0.660 25109171#0"/>
    </vehicle>
    <vehicle id="33610069#0.1159__2__background.16" type="background" depart="165.09" departLane="random">
        <route edges="33610069#0.1159 30065037"/>
    </vehicle>
    <vehicle id="-156465481#3.628.100__2__background.15" type="background" depart="165.90" departLane="random">
        <route edges="-156465481#3.628.100 -156465483#2"/>
    </vehicle>
    <vehicle id="156465483#0.660__2__background.11" type="background" depart="167.20" departLane="random">
        <route edges="156465483#0.660 25109171#0"/>
    </vehicle>
    <vehicle id="169221931#0.91__2__background.17" type="background" depart="167.92" departLane="random">
        <route edges="169221931#0.91 25109171#0"/>
    </vehicle>
    <vehicle id="33610069#0.1159__2__background.17" type="background" depart="169.49" departLane="random">
        <route edges="33610069#0.1159 -156465483#2"/>
    </vehicle>
    <vehicle id="169221931#0.91__2__background.18" type="background" depart="170.44" departLane="random">
        <route edges="169221931#0.91 25109171#0"/>
    </vehicle>
    <vehicle id="169221931#0.91__2__background.19" type="background" depart="170.49" departLane="random">
        <route edges="169221931#0.91 25109171#0"/>
    </vehicle>
    <vehicle id="-156465481#3.628.100__2__background.16" type="background" depart="171.42" departLane="random">
        <route edges="-156465481#3.628.100 25109171#0"/>
    </vehicle>
    <vehicle id="169221931#0.91__2__background.20" type="background" depart="172.24" departLane="random">
        <route edges="169221931#0.91 156465481#0"/>
    </vehicle>
    <vehicle id="-156465481#3.628.100__2__background.17" type="background" depart="173.47" departLane="random">
        <route edges="-156465481#3.628.100 -156465483#2"/>
    </vehicle>
    <vehicle id="156465483#0.660__2__background.12" type="background" depart="173.82" departLane="random">
        <route edges="156465483#0.660 30065037"/>
    </vehicle>
    <vehicle id="-156465481#3.628.100__2__background.18" type="background" depart="174.52" departLane="random">
        <route edges="-156465481#3.628.100 30065037"/>
    </vehicle>
    <vehicle id="33610069#0.1159__2__background.18" type="background" depart="177.22" departLane="random">
        <route edges="33610069#0.1159 156465481#0"/>
    </vehicle>
    <vehicle id="169221931#0.91__2__background.21" type="background" depart="178.72" departLane="random">
        <route edges="169221931#0.91 156465481#0"/>
    </vehicle>
    <vehicle id="-156465481#3.628.100__3__background.0" type="background" depart="180.02" departLane="random">
        <route edges="-156465481#3.628.100 25109171#0"/>
    </vehicle>
    <vehicle id="169221931#0.91__3__background.0" type="background" depart="181.00" departLane="random">
        <route edges="169221931#0.91 25109171#0"/>
    </vehicle>
    <vehicle id="33610069#0.1159__3__background.0" type="background" depart="181.21" departLane="random">
        <route edges="33610069#0.1159 30065037"/>
    </vehicle>
    <vehicle id="-156465481#3.628.100__3__background.1" type="background" depart="181.48" departLane="random">
        <route edges="-156465481#3.628.100 25109171#0"/>
    </vehicle>
    <vehicle id="-156465481#3.628.100__3__background.2" type="background" depart="182.31" departLane="random">
        <route edges="-156465481#3.628.100 30065037"/>
    </vehicle>
    <vehicle id="156465483#0.660__3__background.0" type="background" depart="183.60" departLane="random">
        <route edges="156465483#0.660 30065037"/>
    </vehicle>
    <vehicle id="169221931#0.91__3__background.1" type="background" depart="185.41" departLane="random">
        <route edges="169221931#0.91 25109171#0"/>
    </vehicle>
    <vehicle id="33610069#0.1159__3__background.1" type="background" depart="187.55" departLane="random">
        <route edges="33610069#0.1159 156465481#0"/>
    </vehicle>
    <vehicle id="169221931#0.91__3__background.2" type="background" depart="188.79" departLane="random">
        <route edges="169221931#0.91 25109171#0"/>
    </vehicle>
    <vehicle id="169221931#0.91__3__background.3" type="background" depart="188.82" departLane="random">
        <route edges="169221931#0.91 156465481#0"/>
    </vehicle>
    <vehicle id="156465483#0.660__3__background.1" type="background" depart="189.26" departLane="random">
        <route edges="156465483#0.660 30065037"/>
    </vehicle>
    <vehicle id="169221931#0.91__3__background.4" type="background" depart="189.59" departLane="random">
        <route edges="169221931#0.91 156465481#0"/>
    </vehicle>
    <vehicle id="-156465481#3.628.100__3__background.3" type="background" depart="189.59" departLane="random">
        <route edges="-156465481#3.628.100 -156465483#2"/>
    </vehicle>
    <vehicle id="169221931#0.91__3__background.5" type="background" depart="193.75" departLane="random">
        <route edges="169221931#0.91 156465481#0"/>
    </vehicle>
    <vehicle id="-156465481#3.628.100__3__background.4" type="background" depart="196.61" departLane="random">
        <route edges="-156465481#3.628.100 -156465483#2"/>
    </vehicle>
    <vehicle id="169221931#0.91__3__background.6" type="background" depart="197.09" departLane="random">
        <route edges="169221931#0.91 25109171#0"/>
    </vehicle>
    <vehicle id="156465483#0.660__3__background.2" type="background" depart="197.41" departLane="random">
        <route edges="156465483#0.660 156465481#0"/>
    </vehicle>
    <vehicle id="169221931#0.91__3__background.7" type="background" depart="198.82" departLane="random">
        <route edges="169221931#0.91 -156465483#2"/>
    </vehicle>
    <vehicle id="-156465481#3.628.100__3__background.5" type="background" depart="199.11" departLane="random">
        <route edges="-156465481#3.628.100 -156465483#2"/>
    </vehicle>
    <vehicle id="-156465481#3.628.100__3__background.6" type="background" depart="199.40" departLane="random">
        <route edges="-156465481#3.628.100 -156465483#2"/>
    </vehicle>
    <vehicle id="169221931#0.91__3__background.8" type="background" depart="201.15" departLane="random">
        <route edges="169221931#0.91 -156465483#2"/>
    </vehicle>
    <vehicle id="169221931#0.91__3__background.9" type="background" depart="201.25" departLane="random">
        <route edges="169221931#0.91 -156465483#2"/>
    </vehicle>
    <vehicle id="156465483#0.660__3__background.3" type="background" depart="202.40" departLane="random">
        <route edges="156465483#0.660 30065037"/>
    </vehicle>
    <vehicle id="-156465481#3.628.100__3__background.7" type="background" depart="203.38" departLane="random">
        <route edges="-156465481#3.628.100 -156465483#2"/>
    </vehicle>
    <vehicle id="33610069#0.1159__3__background.2" type="background" depart="203.58" departLane="random">
        <route edges="33610069#0.1159 -156465483#2"/>
    </vehicle>
    <vehicle id="33610069#0.1159__3__background.3" type="background" depart="204.84" departLane="random">
        <route edges="33610069#0.1159 156465481#0"/>
    </vehicle>
    <vehicle id="33610069#0.1159__3__background.4" type="background" depart="205.07" departLane="random">
        <route edges="33610069#0.1159 30065037"/>
    </vehicle>
    <vehicle id="169221931#0.91__3__background.10" type="background" depart="205.18" departLane="random">
        <route edges="169221931#0.91 25109171#0"/>
    </vehicle>
    <vehicle id="-156465481#3.628.100__3__background.8" type="background" depart="205.85" departLane="random">
        <route edges="-156465481#3.628.100 -156465483#2"/>
    </vehicle>
    <vehicle id="33610069#0.1159__3__background.5" type="background" depart="206.74" departLane="random">
        <route edges="33610069#0.1159 30065037"/>
    </vehicle>
    <vehicle id="33610069#0.1159__3__background.6" type="background" depart="207.54" departLane="random">
        <route edges="33610069#0.1159 30065037"/>
    </vehicle>
    <vehicle id="33610069#0.1159__3__background.7" type="background" depart="209.73" departLane="random">
        <route edges="33610069#0.1159 30065037"/>
    </vehicle>
    <vehicle id="-156465481#3.628.100__3__background.9" type="background" depart="210.15" departLane="random">
        <route edges="-156465481#3.628.100 -156465483#2"/>
    </vehicle>
    <vehicle id="-156465481#3.628.100__3__background.10" type="background" depart="211.41" departLane="random">
        <route edges="-156465481#3.628.100 25109171#0"/>
    </vehicle>
    <vehicle id="33610069#0.1159__3__background.8" type="background" depart="211.72" departLane="random">
        <route edges="33610069#0.1159 -156465483#2"/>
    </vehicle>
    <vehicle id="169221931#0.91__3__background.11" type="background" depart="213.16" departLane="random">
        <route edges="169221931#0.91 25109171#0"/>
    </vehicle>