<?xml version="1.0" encoding="UTF-8"?>

<!-- generated on 2026-02-27T16:23:26.076242+08:00 by Eclipse SUMO jtrrouter 1.25.0
<jtrrouterConfiguration xmlns:xsi="http://www.w3.org/2001/XMLSchema-instance" xsi:noNamespaceSchemaLocation="http://sumo.dlr.de/xsd/jtrrouterConfiguration.xsd">

    <input>
        <net-file value="/home/wmn/Coding_Project/TrafficAlpha/SingleTSC_TranSimHub/exp_junction/Beijing_Pinganli/./networks/normal.net.xml"/>
        <route-files value="/home/wmn/Coding_Project/TrafficAlpha/SingleTSC_TranSimHub/exp_junction/Beijing_Pinganli/./testflow.trip.xml"/>
        <turn-ratio-files value="/home/wmn/Coding_Project/TrafficAlpha/SingleTSC_TranSimHub/exp_junction/Beijing_Pinganli/./testflow.turndefs.xml"/>
    </input>

    <output>
        <output-file value="/home/wmn/Coding_Project/TrafficAlpha/SingleTSC_TranSimHub/exp_junction/Beijing_Pinganli/./routes/high_density.rou.xml"/>
    </output>

    <processing>
        <randomize-flows value="True"/>
        <accept-all-destinations value="True"/>
    </processing>

    <defaults>
        <departlane value="random"/>
    </defaults>

    <report>
        <no-warnings value="true"/>
    </report>

    <random_number>
        <seed value="777"/>
    </random_number>

</jtrrouterConfiguration>
-->

<routes xmlns:xsi="http://www.w3.org/2001/XMLSchema-instance" xsi:noNamespaceSchemaLocation="http://sumo.dlr.de/xsd/routes_file.xsd">
    <vType id="background" length="5.00" color="220,220,220" tau="1.0"/>
    <vehicle id="156465483#0.660__0__background.0" type="background" depart="0.03" departLane="random">
        <route edges="156465483#0.660 25109171#0"/>
    </vehicle>
    <vehicle id="169221931#0.91__0__background.0" type="background" depart="0.84" departLane="random">
        <route edges="169221931#0.91 25109171#0"/>
    </vehicle>
    <vehicle id="33610069#0.1159__0__background.0" type="background" depart="1.54" departLane="random">
        <route edges="33610069#0.1159 156465481#0"/>
    </vehicle>
    <vehicle id="33610069#0.1159__0__background.1" type="background" depart="3.43" departLane="random">
        <route edges="33610069#0.1159 156465481#0"/>
    </vehicle>
    <vehicle id="33610069#0.1159__0__background.2" type="background" depart="3.47" departLane="random">
        <route edges="33610069#0.1159 30065037"/>
    </vehicle>
    <vehicle id="-156465481#3.628.100__0__background.0" type="background" depart="3.58" departLane="random">
        <route edges="-156465481#3.628.100 30065037"/>
    </vehicle>
    <vehicle id="169221931#0.91__0__background.1" type="background" depart="4.16" departLane="random">
        <route edges="169221931#0.91 156465481#0"/>
    </vehicle>
    <vehicle id="156465483#0.660__0__background.1" type="background" depart="4.54" departLane="random">
        <route edges="156465483#0.660 25109171#0"/>
    </vehicle>
    <vehicle id="169221931#0.91__0__background.2" type="background" depart="5.68" departLane="random">
        <route edges="169221931#0.91 25109171#0"/>
    </vehicle>
    <vehicle id="156465483#0.660__0__background.2" type="background" depart="5.99" departLane="random">
        <route edges="156465483#0.660 30065037"/>
    </vehicle>
    <vehicle id="-156465481#3.628.100__0__background.1" type="background" depart="6.54" departLane="random">
        <route edges="-156465481#3.628.100 25109171#0"/>
    </vehicle>
    <vehicle id="-156465481#3.628.100__0__background.2" type="background" depart="6.80" departLane="random">
        <route edges="-156465481#3.628.100 25109171#0"/>
    </vehicle>
    <vehicle id="169221931#0.91__0__background.3" type="background" depart="7.71" departLane="random">
        <route edges="169221931#0.91 25109171#0"/>
    </vehicle>
    <vehicle id="169221931#0.91__0__background.4" type="background" depart="7.95" departLane="random">
        <route edges="169221931#0.91 25109171#0"/>
    </vehicle>
    <vehicle id="33610069#0.1159__0__background.3" type="background" depart="9.31" departLane="random">
        <route edges="33610069#0.1159 30065037"/>
    </vehicle>
    <vehicle id="169221931#0.91__0__background.5" type="background" depart="10.82" departLane="random">
        <route edges="169221931#0.91 156465481#0"/>
    </vehicle>
    <vehicle id="-156465481#3.628.100__0__background.3" type="background" depart="10.88" departLane="random">
        <route edges="-156465481#3.628.100 25109171#0"/>
    </vehicle>
    <vehicle id="-156465481#3.628.100__0__background.4" type="background" depart="11.03" departLane="random">
        <route edges="-156465481#3.628.100 25109171#0"/>
    </vehicle>
    <vehicle id="33610069#0.1159__0__background.4" type="background" depart="11.26" departLane="random">
        <route edges="33610069#0.1159 30065037"/>
    </vehicle>
    <vehicle id="33610069#0.1159__0__background.5" type="background" depart="12.29" departLane="random">
        <route edges="33610069#0.1159 156465481#0"/>
    </vehicle>
    <vehicle id="-156465481#3.628.100__0__background.5" type="background" depart="12.32" departLane="random">
        <route edges="-156465481#3.628.100 -156465483#2"/>
    </vehicle>
    <vehicle id="33610069#0.1159__0__background.6" type="background" depart="12.41" departLane="random">
        <route edges="33610069#0.1159 156465481#0"/>
    </vehicle>
    <vehicle id="33610069#0.1159__0__background.7" type="background" depart="13.67" departLane="random">
        <route edges="33610069#0.1159 -156465483#2"/>
    </vehicle>
    <vehicle id="33610069#0.1159__0__background.8" type="background" depart="15.08" departLane="random">
        <route edges="33610069#0.1159 30065037"/>
    </vehicle>
    <vehicle id="33610069#0.1159__0__background.9" type="background" depart="15.59" departLane="random">
        <route edges="33610069#0.1159 -156465483#2"/>
    </vehicle>
    <vehicle id="169221931#0.91__0__background.6" type="background" depart="15.68" departLane="random">
        <route edges="169221931#0.91 -156465483#2"/>
    </vehicle>
    <vehicle id="-156465481#3.628.100__0__background.6" type="background" depart="15.93" departLane="random">
        <route edges="-156465481#3.628.100 -156465483#2"/>
    </vehicle>
    <vehicle id="33610069#0.1159__0__background.10" type="background" depart="16.46" departLane="random">
        <route edges="33610069#0.1159 156465481#0"/>
    </vehicle>
    <vehicle id="33610069#0.1159__0__background.11" type="background" depart="16.73" departLane="random">
        <route edges="33610069#0.1159 -156465483#2"/>
    </vehicle>
    <vehicle id="169221931#0.91__0__background.7" type="background" depart="16.75" departLane="random">
        <route edges="169221931#0.91 -156465483#2"/>
    </vehicle>
    <vehicle id="-156465481#3.628.100__0__background.7" type="background" depart="17.37" departLane="random">
        <route edges="-156465481#3.628.100 30065037"/>
    </vehicle>
    <vehicle id="33610069#0.1159__0__background.12" type="background" depart="18.84" departLane="random">
        <route edges="33610069#0.1159 30065037"/>
    </vehicle>
    <vehicle id="169221931#0.91__0__background.8" type="background" depart="19.28" departLane="random">
        <route edges="169221931#0.91 -156465483#2"/>
    </vehicle>
    <vehicle id="169221931#0.91__0__background.9" type="background" depart="20.32" departLane="random">
        <route edges="169221931#0.91 25109171#0"/>
    </vehicle>
    <vehicle id="33610069#0.1159__0__background.13" type="background" depart="20.50" departLane="random">
        <route edges="33610069#0.1159 30065037"/>
    </vehicle>
    <vehicle id="169221931#0.91__0__background.10" type="background" depart="23.35" departLane="random">
        <route edges="169221931#0.91 25109171#0"/>
    </vehicle>
    <vehicle id="156465483#0.660__0__background.3" type="background" depart="25.22" departLane="random">
        <route edges="156465483#0.660 30065037"/>
    </vehicle>
    <vehicle id="-156465481#3.628.100__0__background.8" type="background" depart="25.90" departLane="random">
        <route edges="-156465481#3.628.100 30065037"/>
    </vehicle>
    <vehicle id="156465483#0.660__0__background.4" type="background" depart="26.23" departLane="random">
        <route edges="156465483#0.660 156465481#0"/>
    </vehicle>
    <vehicle id="156465483#0.660__0__background.5" type="background" depart="26.40" departLane="random">
        <route edges="156465483#0.660 30065037"/>
    </vehicle>
    <vehicle id="-156465481#3.628.100__0__background.9" type="background" depart="26.70" departLane="random">
        <route edges="-156465481#3.628.100 25109171#0"/>
    </vehicle>
    <vehicle id="169221931#0.91__0__background.11" type="background" depart="26.95" departLane="random">
        <route edges="169221931#0.91 156465481#0"/>
    </vehicle>
    <vehicle id="169221931#0.91__0__background.12" type="background" depart="28.29" departLane="random">
        <route edges="169221931#0.91 25109171#0"/>
    </vehicle>
    <vehicle id="-156465481#3.628.100__0__background.10" type="background" depart="28.79" departLane="random">
        <route edges="-156465481#3.628.100 25109171#0"/>
    </vehicle>
    <vehicle id="33610069#0.1159__0__background.14" type="background" depart="29.83" departLane="random">
        <route edges="33610069#0.1159 -156465483#2"/>
    </vehicle>
    <vehicle id="156465483#0.660__0__background.6" type="background" depart="30.89" departLane="random">
        <route edges="156465483#0.660 30065037"/>
    </vehicle>
    <vehicle id="156465483#0.660__0__background.7" type="background" depart="31.08" departLane="random">
        <route edges="156465483#0.660 30065037"/>
    </vehicle>
    <vehicle id="169221931#0.91__0__background.13" type="background" depart="33.66" departLane="random">
        <route edges="169221931#0.91 -156465483#2"/>
    </vehicle>
    <vehicle id="169221931#0.91__0__background.14" type="background" depart="35.91" departLane="random">
        <route edges="169221931#0.91 25109171#0"/>
    </vehicle>
    <vehicle id="-156465481#3.628.100__0__background.11" type="background" depart="36.79" departLane="random">
        <route edges="-156465481#3.628.100 25109171#0"/>
    </vehicle>
    <vehicle id="33610069#0.1159__0__background.15" type="background" depart="37.85" departLane="random">
        <route edges="33610069#0.1159 -156465483#2"/>
    </vehicle>
    <vehicle id="156465483#0.660__0__background.8" type="background" depart="39.15" departLane="random">
        <route edges="156465483#0.660 30065037"/>
    </vehicle>
    <vehicle id="-156465481#3.628.100__0__background.12" type="background" depart="40.54" departLane="random">
        <route edges="-156465481#3.628.100 25109171#0"/>
    </vehicle>
    <vehicle id="-156465481#3.628.100__0__background.13" type="background" depart="40.85" departLane="random">
        <route edges="-156465481#3.628.100 30065037"/>
    </vehicle>
    <vehicle id="169221931#0.91__0__background.15" type="background" depart="41.30" departLane="random">
        <route edges="169221931#0.91 25109171#0"/>
    </vehicle>
    <vehicle id="33610069#0.1159__0__background.16" type="background" depart="42.87" departLane="random">
        <route edges="33610069#0.1159 30065037"/>
    </vehicle>
    <vehicle id="156465483#0.660__0__background.9" type="background" depart="43.19" departLane="random">
        <route edges="156465483#0.660 25109171#0"/>
    </vehicle>
    <vehicle id="33610069#0.1159__0__background.17" type="background" depart="43.28" departLane="random">
        <route edges="33610069#0.1159 156465481#0"/>
    </vehicle>
    <vehicle id="-156465481#3.628.100__0__background.14" type="background" depart="44.46" departLane="random">
        <route edges="-156465481#3.628.100 -156465483#2"/>
    </vehicle>
    <vehicle id="33610069#0.1159__0__background.18" type="background" depart="45.90" departLane="random">
        <route edges="33610069#0.1159 156465481#0"/>
    </vehicle>
    <vehicle id="169221931#0.91__0__background.16" type="background" depart="46.02" departLane="random">
        <route edges="169221931#0.91 156465481#0"/>
    </vehicle>
    <vehicle id="169221931#0.91__0__background.17" type="background" depart="46.02" departLane="random">
        <route edges="169221931#0.91 156465481#0"/>
    </vehicle>
    <vehicle id="-156465481#3.628.100__0__background.15" type="background" depart="47.92" departLane="random">
        <route edges="-156465481#3.628.100 -156465483#2"/>
    </vehicle>
    <vehicle id="156465483#0.660__0__background.10" type="background" depart="48.14" departLane="random">
        <route edges="156465483#0.660 25109171#0"/>
    </vehicle>
    <vehicle id="169221931#0.91__0__background.18" type="background" depart="48.23" departLane="random">
        <route edges="169221931#0.91 25109171#0"/>
    </vehicle>
    <vehicle id="156465483#0.660__0__background.11" type="background" depart="49.14" departLane="random">
        <route edges="156465483#0.660 30065037"/>
    </vehicle>
    <vehicle id="33610069#0.1159__0__background.19" type="background" depart="51.42" departLane="random">
        <route edges="33610069#0.1159 -156465483#2"/>
    </vehicle>
    <vehicle id="169221931#0.91__0__background.19" type="background" depart="51.52" departLane="random">
        <route edges="169221931#0.91 -156465483#2"/>
    </vehicle>
    <vehicle id="-156465481#3.628.100__0__background.16" type="background" depart="52.13" departLane="random">
        <route edges="-156465481#3.628.100 -156465483#2"/>
    </vehicle>
    <vehicle id="169221931#0.91__0__background.20" type="background" depart="53.45" departLane="random">
        <route edges="169221931#0.91 156465481#0"/>
    </vehicle>
    <vehicle id="33610069#0.1159__0__background.20" type="background" depart="53.47" departLane="random">
        <route edges="33610069#0.1159 156465481#0"/>
    </vehicle>
    <vehicle id="156465483#0.660__0__background.12" type="background" depart="54.52" departLane="random">
        <route edges="156465483#0.660 25109171#0"/>
    </vehicle>
    <vehicle id="-156465481#3.628.100__0__background.17" type="background" depart="54.94" departLane="random">
        <route edges="-156465481#3.628.100 -156465483#2"/>
    </vehicle>
    <vehicle id="169221931#0.91__0__background.21" type="background" depart="56.15" departLane="random">
        <route edges="169221931#0.91 -156465483#2"/>
    </vehicle>
    <vehicle id="156465483#0.660__0__background.13" type="background" depart="57.89" departLane="random">
        <route edges="156465483#0.660 25109171#0"/>
    </vehicle>
    <vehicle id="156465483#0.660__0__background.14" type="background" depart="59.78" departLane="random">
        <route edges="156465483#0.660 156465481#0"/>
    </vehicle>
    <vehicle id="33610069#0.1159__1__background.0" type="background" depart="60.02" departLane="random">
        <route edges="33610069#0.1159 30065037"/>
    </vehicle>
    <vehicle id="-156465481#3.628.100__1__background.0" type="background" depart="60.09" departLane="random">
        <route edges="-156465481#3.628.100 -156465483#2"/>
    </vehicle>
    <vehicle id="-156465481#3.628.100__1__background.1" type="background" depart="60.19" departLane="random">
        <route edges="-156465481#3.628.100 30065037"/>
    </vehicle>
    <vehicle id="156465483#0.660__1__background.0" type="background" depart="60.29" departLane="random">
        <route edges="156465483#0.660 156465481#0"/>
    </vehicle>
    <vehicle id="33610069#0.1159__1__background.1" type="background" depart="61.48" departLane="random">
        <route edges="33610069#0.1159 30065037"/>
    </vehicle>
    <vehicle id="-156465481#3.628.100__1__background.2" type="background" depart="61.72" departLane="random">
        <route edges="-156465481#3.628.100 -156465483#2"/>
    </vehicle>
    <vehicle id="156465483#0.660__1__background.1" type="background" depart="62.31" departLane="random">
        <route edges="156465483#0.660 30065037"/>
    </vehicle>
    <vehicle id="169221931#0.91__1__background.0" type="background" depart="64.84" departLane="random">
        <route edges="169221931#0.91 25109171#0"/>
    </vehicle>
    <vehicle id="33610069#0.1159__1__background.2" type="background" depart="65.41" departLane="random">
        <route edges="33610069#0.1159 30065037"/>
    </vehicle>
    <vehicle id="169221931#0.91__1__background.1" type="background" depart="68.46" departLane="random">
        <route edges="169221931#0.91 25109171#0"/>
    </vehicle>
    <vehicle id="156465483#0.660__1__background.2" type="background" depart="68.53" departLane="random">
        <route edges="156465483#0.660 156465481#0"/>
    </vehicle>
    <vehicle id="33610069#0.1159__1__background.3" type="background" depart="69.59" departLane="random">
        <route edges="33610069#0.1159 -156465483#2"/>
    </vehicle>
    <vehicle id="33610069#0.1159__1__background.4" type="background" depart="69.59" departLane="random">
        <route edges="33610069#0.1159 30065037"/>
    </vehicle>
    <vehicle id="-156465481#3.628.100__1__background.3" type="background" depart="70.17" departLane="random">
        <route edges="-156465481#3.628.100 25109171#0"/>
    </vehicle>
    <vehicle id="-156465481#3.628.100__1__background.4" type="background" depart="74.01" departLane="random">
        <route edges="-156465481#3.628.100 25109171#0"/>
    </vehicle>
    <vehicle id="156465483#0.660__1__background.3" type="background" depart="74.15" departLane="random">
        <route edges="156465483#0.660 25109171#0"/>
    </vehicle>
    <vehicle id="169221931#0.91__1__background.2" type="background" depart="74.36" departLane="random">
        <route edges="169221931#0.91 25109171#0"/>
    </vehicle>
    <vehicle id="169221931#0.91__1__background.3" type="background" depart="76.26" departLane="random">
        <route edges="169221931#0.91 -156465483#2"/>
    </vehicle>
    <vehicle id="33610069#0.1159__1__background.5" type="background" depart="76.61" departLane="random">
        <route edges="33610069#0.1159 -156465483#2"/>
    </vehicle>
    <vehicle id="33610069#0.1159__1__background.6" type="background" depart="77.09" departLane="random">
        <route edges="33610069#0.1159 -156465483#2"/>
    </vehicle>
    <vehicle id="156465483#0.660__1__background.4" type="background" depart="77.86" departLane="random">
        <route edges="156465483#0.660 156465481#0"/>
    </vehicle>
    <vehicle id="33610069#0.1159__1__background.7" type="background" depart="79.11" departLane="random">
        <route edges="33610069#0.1159 -156465483#2"/>
    </vehicle>
    <vehicle id="33610069#0.1159__1__background.8" type="background" depart="79.40" departLane="random">
        <route edges="33610069#0.1159 30065037"/>
    </vehicle>
    <vehicle id="169221931#0.91__1__background.4" type="background" depart="79.56" departLane="random">
        <route edges="169221931#0.91 25109171#0"/>
    </vehicle>
    <vehicle id="-156465481#3.628.100__1__background.5" type="background" depart="83.16" departLane="random">
        <route edges="-156465481#3.628.100 -156465483#2"/>
    </vehicle>
    <vehicle id="33610069#0.1159__1__background.9" type="background" depart="83.38" departLane="random">
        <route edges="33610069#0.1159 -156465483#2"/>
    </vehicle>
    <vehicle id="156465483#0.660__1__background.5" type="background" depart="84.00" departLane="random">
        <route edges="156465483#0.660 156465481#0"/>
    </vehicle>
    <vehicle id="169221931#0.91__1__background.5" type="background" depart="84.69" departLane="random">
        <route edges="169221931#0.91 156465481#0"/>
    </vehicle>
    <vehicle id="156465483#0.660__1__background.6" type="background" depart="85.38" departLane="random">
        <route edges="156465483#0.660 156465481#0"/>
    </vehicle>
    <vehicle id="-156465481#3.628.100__1__background.6" type="background" depart="85.80" departLane="random">
        <route edges="-156465481#3.628.100 -156465483#2"/>
    </vehicle>
    <vehicle id="33610069#0.1159__1__background.10" type="background" depart="85.85" departLane="random">
        <route edges="33610069#0.1159 30065037"/>
    </vehicle>
    <vehicle id="-156465481#3.628.100__1__background.7" type="background" depart="85.86" departLane="random">
        <route edges="-156465481#3.628.100 -156465483#2"/>
    </vehicle>
    <vehicle id="-156465481#3.628.100__1__background.8" type="background" depart="87.35" departLane="random">
        <route edges="-156465481#3.628.100 25109171#0"/>
    </vehicle>
    <vehicle id="169221931#0.91__1__background.6" type="background" depart="88.54" departLane="random">
        <route edges="169221931#0.91 25109171#0"/>
    </vehicle>
    <vehicle id="33610069#0.1159__1__background.11" type="background" depart="90.15" departLane="random">
        <route edges="33610069#0.1159 156465481#0"/>
    </vehicle>
    <vehicle id="169221931#0.91__1__background.7" type="background" depart="90.51" departLane="random">
        <route edges="169221931#0.91 25109171#0"/>
    </vehicle>
    <vehicle id="33610069#0.1159__1__background.12" type="background" depart="91.41" departLane="random">
        <route edges="33610069#0.1159 30065037"/>
    </vehicle>
    <vehicle id="156465483#0.660__1__background.7" type="background" depart="91.76" departLane="random">
        <route edges="156465483#0.660 25109171#0"/>
    </vehicle>
    <vehicle id="-156465481#3.628.100__1__background.9" type="background" depart="91.85" departLane="random">
        <route edges="-156465481#3.628.100 30065037"/>
    </vehicle>
    <vehicle id="169221931#0.91__1__background.8" type="background" depart="91.94" departLane="random">
        <route edges="169221931#0.91 25109171#0"/>
    </vehicle>
    <vehicle id="169221931#0.91__1__background.9" type="background" depart="92.29" departLane="random">
        <route edges="169221931#0.91 156465481#0"/>
    </vehicle>
    <vehicle id="33610069#0.1159__1__background.13" type="background" depart="93.16" departLane="random">
        <route edges="33610069#0.1159 156465481#0"/>
    </vehicle>
    <vehicle id="156465483#0.660__1__background.8" type="background" depart="93.35" departLane="random">
        <route edges="156465483#0.660 25109171#0"/>
    </vehicle>
    <vehicle id="156465483#0.660__1__background.9" type="background" depart="93.66" departLane="random">
        <route edges="156465483#0.660 156465481#0"/>
    </vehicle>
    <vehicle id="156465483#0.660__1__background.10" type="background" depart="94.35" departLane="random">
        <route edges="156465483#0.660 156465481#0"/>
    </vehicle>
    <vehicle id="156465483#0.660__1__background.11" type="background" depart="95.15" departLane="random">
        <route edges="156465483#0.660 30065037"/>
    </vehicle>
    <vehicle id="-156465481#3.628.100__1__background.10" type="background" depart="95.70" departLane="random">
        <route edges="-156465481#3.628.100 30065037"/>
    </vehicle>
    <vehicle id="169221931#0.91__1__background.10" type="background" depart="97.85" departLane="random">
        <route edges="169221931#0.91 156465481#0"/>
    </vehicle>
    <vehicle id="-156465481#3.628.100__1__background.11" type="background" depart="99.52" departLane="random">
        <route edges="-156465481#3.628.100 25109171#0"/>
    </vehicle>
    <vehicle id="33610069#0.1159__1__background.14" type="background" depart="99.77" departLane="random">
        <route edges="33610069#0.1159 30065037"/>
    </vehicle>
    <vehicle id="169221931#0.91__1__background.11" type="background" depart="99.82" departLane="random">
        <route edges="169221931#0.91 25109171#0"/>
    </vehicle>
    <vehicle id="169221931#0.91__1__background.12" type="background" depart="102.11" departLane="random">
        <route edges="169221931#0.91 156465481#0"/>
    </vehicle>
    <vehicle id="169221931#0.91__1__background.13" type="background" depart="102.53" departLane="random">
        <route edges="169221931#0.91 25109171#0"/>
    </vehicle>
    <vehicle id="156465483#0.660__1__background.12" type="background" depart="102.62" departLane="random">
        <route edges="156465483#0.660 25109171#0"/>
    </vehicle>
    <vehicle id="169221931#0.91__1__background.14" type="background" depart="103.32" departLane="random">
        <route edges="169221931#0.91 -156465483#2"/>
    </vehicle>
    <vehicle id="33610069#0.1159__1__background.15" type="background" depart="103.50" departLane="random">
        <route edges="33610069#0.1159 156465481#0"/>
    </vehicle>
    <vehicle id="169221931#0.91__1__background.15" type="background" depart="103.99" departLane="random">
        <route edges="169221931#0.91 25109171#0"/>
    </vehicle>
    <vehicle id="169221931#0.91__1__background.16" type="background" depart="104.08" departLane="random">
        <route edges="169221931#0.91 25109171#0"/>
    </vehicle>
    <vehicle id="156465483#0.660__1__background.13" type="background" depart="104.42" departLane="random">
        <route edges="156465483#0.660 156465481#0"/>
    </vehicle>
    <vehicle id="-156465481#3.628.100__1__background.12" type="background" depart="104.98" departLane="random">
        <route edges="-156465481#3.628.100 30065037"/>
    </vehicle>
    <vehicle id="169221931#0.91__1__background.17" type="background" depart="105.08" departLane="random">
        <route edges="169221931#0.91 156465481#0"/>
    </vehicle>
    <vehicle id="169221931#0.91__1__background.18" type="background" depart="105.09" departLane="random">
        <route edges="169221931#0.91 -156465483#2"/>
    </vehicle>
    <vehicle id="169221931#0.91__1__background.19" type="background" depart="107.20" departLane="random">
        <route edges="169221931#0.91 25109171#0"/>
    </vehicle>
    <vehicle id="-156465481#3.628.100__1__background.13" type="background" depart="107.92" departLane="random">
        <route edges="-156465481#3.628.100 30065037"/>
    </vehicle>
    <vehicle id="33610069#0.1159__1__background.16" type="background" depart="108.77" departLane="random">
        <route edges="33610069#0.1159 156465481#0"/>
    </vehicle>
    <vehicle id="156465483#0.660__1__background.14" type="background" depart="109.49" departLane="random">
        <route edges="156465483#0.660 25109171#0"/>
    </vehicle>
    <vehicle id="-156465481#3.628.100__1__background.14" type="background" depart="110.44" departLane="random">
        <route edges="-156465481#3.628.100 30065037"/>
    </vehicle>
    <vehicle id="-156465481#3.628.100__1__background.15" type="background" depart="110.49" departLane="random">
        <route edges="-156465481#3.628.100 25109171#0"/>
    </vehicle>
    <vehicle id="33610069#0.1159__1__background.17" type="background" depart="110.83" departLane="random">
        <route edges="33610069#0.1159 -156465483#2"/>
    </vehicle>
    <vehicle id="33610069#0.1159__1__background.18" type="background" depart="111.40" departLane="random">
        <route edges="33610069#0.1159 30065037"/>
    </vehicle>
    <vehicle id="-156465481#3.628.100__1__background.16" type="background" depart="112.24" departLane="random">
        <route edges="-156465481#3.628.100 -156465483#2"/>
    </vehicle>
    <vehicle id="169221931#0.91__1__background.20" type="background" depart="113.82" departLane="random">
        <route edges="169221931#0.91 156465481#0"/>
    </vehicle>
    <vehicle id="33610069#0.1159__1__background.19" type="background" depart="113.90" departLane="random">
        <route edges="33610069#0.1159 30065037"/>
    </vehicle>
    <vehicle id="33610069#0.1159__1__background.20" type="background" depart="113.95" departLane="random">
        <route edges="33610069#0.1159 30065037"/>
    </vehicle>
    <vehicle id="169221931#0.91__1__background.21" type="background" depart="117.22" departLane="random">
        <route edges="169221931#0.91 156465481#0"/>
    </vehicle>
    <vehicle id="-156465481#3.628.100__1__background.17" type="background" depart="118.72" departLane="random">
        <route edges="-156465481#3.628.100 -156465483#2"/>
    </vehicle>
    <vehicle id="-156465481#3.628.100__2__background.0" type="background" depart="121.00" departLane="random">
        <route edges="-156465481#3.628.100 30065037"/>
    </vehicle>
    <vehicle id="156465483#0.660__2__background.0" type="background" depart="121.21" departLane="random">
        <route edges="156465483#0.660 25109171#0"/>
    </vehicle>
    <vehicle id="33610069#0.1159__2__background.0" type="background" depart="123.47" departLane="random">
        <route edges="33610069#0.1159 156465481#0"/>
    </vehicle>
    <vehicle id="169221931#0.91__2__background.0" type="background" depart="123.60" departLane="random">
        <route edges="169221931#0.91 25109171#0"/>
    </vehicle>
    <vehicle id="33610069#0.1159__2__background.1" type="background" depart="125.34" departLane="random">
        <route edges="33610069#0.1159 -156465483#2"/>
    </vehicle>
    <vehicle id="156465483#0.660__2__background.1" type="background" depart="127.55" departLane="random">
        <route edges="156465483#0.660 25109171#0"/>
    </vehicle>
    <vehicle id="-156465481#3.628.100__2__background.1" type="background" depart="128.79" departLane="random">
        <route edges="-156465481#3.628.100 -156465483#2"/>
    </vehicle>
    <vehicle id="-156465481#3.628.100__2__background.2" type="background" depart="128.82" departLane="random">
        <route edges="-156465481#3.628.100 25109171#0"/>
    </vehicle>
    <vehicle id="169221931#0.91__2__background.1" type="background" depart="129.26" departLane="random">
        <route edges="169221931#0.91 156465481#0"/>
    </vehicle>
    <vehicle id="33610069#0.1159__2__background.2" type="background" depart="130.58" departLane="random">
        <route edges="33610069#0.1159 30065037"/>
    </vehicle>
    <vehicle id="33610069#0.1159__2__background.3" type="background" depart="130.81" departLane="random">
        <route edges="33610069#0.1159 -156465483#2"/>
    </vehicle>