<?xml version="1.0" encoding="UTF-8"?>

<!-- generated on 2026-04-13T16:24:18.186147+08:00 by Eclipse SUMO jtrrouter 1.26.0
<jtrrouterConfiguration xmlns:xsi="http://www.w3.org/2001/XMLSchema-instance" xsi:noNamespaceSchemaLocation="http://sumo.dlr.de/xsd/jtrrouterConfiguration.xsd">

    <input>
        <net-file value="/home/wmn/Coding_Project/TrafficAlpha/SingleTSC_TranSimHub/exp_junction/SouthKorea_Songdo/./networks/easy.net.xml"/>
        <route-files value="/home/wmn/Coding_Project/TrafficAlpha/SingleTSC_TranSimHub/exp_junction/SouthKorea_Songdo/./testflow.trip.xml"/>
        <turn-ratio-files value="/home/wmn/Coding_Project/TrafficAlpha/SingleTSC_TranSimHub/exp_junction/SouthKorea_Songdo/./testflow.turndefs.xml"/>
    </input>

    <output>
        <output-file value="/home/wmn/Coding_Project/TrafficAlpha/SingleTSC_TranSimHub/exp_junction/SouthKorea_Songdo/./routes/increasing_demand.rou.xml"/>
    </output>

    <processing>
        <randomize-flows value="True"/>
        <accept-all-destinations value="True"/>
    </processing>

    <defaults>
        <departlane value="random"/>
    </defaults>

    <report>
        <no-warnings value="true"/>
    </report>

    <random_number>
        <seed value="777"/>
    </random_number>

</jtrrouterConfiguration>
-->

<routes xmlns:xsi="http://www.w3.org/2001/XMLSchema-instance" xsi:noNamespaceSchemaLocation="http://sumo.dlr.de/xsd/routes_file.xsd">
    <vType id="background" length="5.00" color="220,220,220" tau="1.0"/>
    <vehicle id="E1__0__background.0" type="background" depart="0.84" departLane="random">
        <route edges="E1 429770748#1"/>
    </vehicle>
    <vehicle id="315156946#0__0__background.0" type="background" depart="3.58" departLane="random">
        <route edges="315156946#0 E2 E3"/>
    </vehicle>
    <vehicle id="E1__0__background.1" type="background" depart="5.68" departLane="random">
        <route edges="E1 429770748#1"/>
    </vehicle>
    <vehicle id="315156946#0__0__background.1" type="background" depart="6.54" departLane="random">
        <route edges="315156946#0 E2 E3"/>
    </vehicle>
    <vehicle id="315156946#0__0__background.2" type="background" depart="6.80" departLane="random">
        <route edges="315156946#0 989312046#2"/>
    </vehicle>
    <vehicle id="525074961#6__0__background.0" type="background" depart="7.71" departLane="random">
        <route edges="525074961#6 525074961#10 525074961#11"/>
    </vehicle>
    <vehicle id="525074961#6__0__background.1" type="background" depart="10.82" departLane="random">
        <route edges="525074961#6 525074961#10 525074961#11"/>
    </vehicle>
    <vehicle id="989312046#0__0__background.0" type="background" depart="10.88" departLane="random">
        <route edges="989312046#0 429770748#1"/>
    </vehicle>
    <vehicle id="315156946#0__0__background.3" type="background" depart="11.03" departLane="random">
        <route edges="315156946#0 E2 E3"/>
    </vehicle>
    <vehicle id="315156946#0__0__background.4" type="background" depart="12.32" departLane="random">
        <route edges="315156946#0 E2 E3"/>
    </vehicle>
    <vehicle id="E1__0__background.2" type="background" depart="15.68" departLane="random">
        <route edges="E1 989312046#2"/>
    </vehicle>
    <vehicle id="989312046#0__0__background.1" type="background" depart="15.93" departLane="random">
        <route edges="989312046#0 429770748#1"/>
    </vehicle>
    <vehicle id="E1__0__background.3" type="background" depart="16.75" departLane="random">
        <route edges="E1 429770748#1"/>
    </vehicle>
    <vehicle id="315156946#0__0__background.5" type="background" depart="17.37" departLane="random">
        <route edges="315156946#0 E2 E3"/>
    </vehicle>
    <vehicle id="525074961#6__0__background.2" type="background" depart="19.28" departLane="random">
        <route edges="525074961#6 525074961#10 525074961#11"/>
    </vehicle>
    <vehicle id="315156946#0__0__background.6" type="background" depart="20.32" departLane="random">
        <route edges="315156946#0 E2 E3"/>
    </vehicle>
    <vehicle id="E1__0__background.4" type="background" depart="23.35" departLane="random">
        <route edges="E1 989312046#2"/>
    </vehicle>
    <vehicle id="315156946#0__0__background.7" type="background" depart="25.90" departLane="random">
        <route edges="315156946#0 989312046#2"/>
    </vehicle>
    <vehicle id="989312046#0__0__background.2" type="background" depart="26.70" departLane="random">
        <route edges="989312046#0 429770748#1"/>
    </vehicle>
    <vehicle id="315156946#0__0__background.8" type="background" depart="26.95" departLane="random">
        <route edges="315156946#0 E2 E3"/>
    </vehicle>
    <vehicle id="989312046#0__0__background.3" type="background" depart="28.79" departLane="random">
        <route edges="989312046#0 989312046#2"/>
    </vehicle>
    <vehicle id="E1__0__background.5" type="background" depart="35.91" departLane="random">
        <route edges="E1 989312046#2"/>
    </vehicle>
    <vehicle id="989312046#0__0__background.4" type="background" depart="36.79" departLane="random">
        <route edges="989312046#0 E2 E3"/>
    </vehicle>
    <vehicle id="989312046#0__0__background.5" type="background" depart="40.54" departLane="random">
        <route edges="989312046#0 989312046#2"/>
    </vehicle>
    <vehicle id="315156946#0__0__background.9" type="background" depart="40.85" departLane="random">
        <route edges="315156946#0 525074961#10 525074961#11"/>
    </vehicle>
    <vehicle id="525074961#6__0__background.3" type="background" depart="41.30" departLane="random">
        <route edges="525074961#6 E2 E3"/>
    </vehicle>
    <vehicle id="989312046#0__0__background.6" type="background" depart="44.46" departLane="random">
        <route edges="989312046#0 429770748#1"/>
    </vehicle>
    <vehicle id="E1__0__background.6" type="background" depart="46.02" departLane="random">
        <route edges="E1 429770748#1"/>
    </vehicle>
    <vehicle id="989312046#0__0__background.7" type="background" depart="47.92" departLane="random">
        <route edges="989312046#0 989312046#2"/>
    </vehicle>
    <vehicle id="525074961#6__0__background.4" type="background" depart="48.23" departLane="random">
        <route edges="525074961#6 525074961#10 525074961#11"/>
    </vehicle>
    <vehicle id="E1__0__background.7" type="background" depart="51.52" departLane="random">
        <route edges="E1 429770748#1"/>
    </vehicle>
    <vehicle id="989312046#0__0__background.8" type="background" depart="52.13" departLane="random">
        <route edges="989312046#0 429770748#1"/>
    </vehicle>
    <vehicle id="E1__0__background.8" type="background" depart="53.45" departLane="random">
        <route edges="E1 989312046#2"/>
    </vehicle>
    <vehicle id="989312046#0__0__background.9" type="background" depart="54.94" departLane="random">
        <route edges="989312046#0 429770748#1"/>
    </vehicle>
    <vehicle id="E1__0__background.9" type="background" depart="56.15" departLane="random">
        <route edges="E1 429770748#1"/>
    </vehicle>
    <vehicle id="315156946#0__1__background.0" type="background" depart="60.03" departLane="random">
        <route edges="315156946#0 989312046#2"/>
    </vehicle>
    <vehicle id="E1__1__background.0" type="background" depart="61.54" departLane="random">
        <route edges="E1 429770748#1"/>
    </vehicle>
    <vehicle id="E1__1__background.1" type="background" depart="63.43" departLane="random">
        <route edges="E1 989312046#2"/>
    </vehicle>
    <vehicle id="989312046#0__1__background.0" type="background" depart="64.16" departLane="random">
        <route edges="989312046#0 989312046#2"/>
    </vehicle>
    <vehicle id="315156946#0__1__background.1" type="background" depart="64.54" departLane="random">
        <route edges="315156946#0 525074961#10 525074961#11"/>
    </vehicle>
    <vehicle id="989312046#0__1__background.1" type="background" depart="65.99" departLane="random">
        <route edges="989312046#0 989312046#2"/>
    </vehicle>
    <vehicle id="989312046#0__1__background.2" type="background" depart="67.95" departLane="random">
        <route edges="989312046#0 E2 E3"/>
    </vehicle>
    <vehicle id="525074961#6__1__background.0" type="background" depart="69.31" departLane="random">
        <route edges="525074961#6 429770748#1"/>
    </vehicle>
    <vehicle id="525074961#6__1__background.1" type="background" depart="71.26" departLane="random">
        <route edges="525074961#6 525074961#10 525074961#11"/>
    </vehicle>
    <vehicle id="E1__1__background.2" type="background" depart="73.67" departLane="random">
        <route edges="E1 429770748#1"/>
    </vehicle>
    <vehicle id="525074961#6__1__background.2" type="background" depart="75.08" departLane="random">
        <route edges="525074961#6 525074961#10 525074961#11"/>
    </vehicle>
    <vehicle id="E1__1__background.3" type="background" depart="75.59" departLane="random">
        <route edges="E1 429770748#1"/>
    </vehicle>
    <vehicle id="E1__1__background.4" type="background" depart="76.46" departLane="random">
        <route edges="E1 989312046#2"/>
    </vehicle>
    <vehicle id="E1__1__background.5" type="background" depart="78.84" departLane="random">
        <route edges="E1 989312046#2"/>
    </vehicle>
    <vehicle id="989312046#0__1__background.3" type="background" depart="85.22" departLane="random">
        <route edges="989312046#0 989312046#2"/>
    </vehicle>
    <vehicle id="315156946#0__1__background.2" type="background" depart="86.23" departLane="random">
        <route edges="315156946#0 E2 E3"/>
    </vehicle>
    <vehicle id="315156946#0__1__background.3" type="background" depart="86.40" departLane="random">
        <route edges="315156946#0 989312046#2"/>
    </vehicle>
    <vehicle id="989312046#0__1__background.4" type="background" depart="88.29" departLane="random">
        <route edges="989312046#0 989312046#2"/>
    </vehicle>
    <vehicle id="E1__1__background.6" type="background" depart="89.83" departLane="random">
        <route edges="E1 429770748#1"/>
    </vehicle>
    <vehicle id="315156946#0__1__background.4" type="background" depart="90.89" departLane="random">
        <route edges="315156946#0 E2 E3"/>
    </vehicle>
    <vehicle id="989312046#0__1__background.5" type="background" depart="91.08" departLane="random">
        <route edges="989312046#0 989312046#2"/>
    </vehicle>
    <vehicle id="989312046#0__1__background.6" type="background" depart="93.66" departLane="random">
        <route edges="989312046#0 989312046#2"/>
    </vehicle>
    <vehicle id="315156946#0__1__background.5" type="background" depart="99.15" departLane="random">
        <route edges="315156946#0 E2 E3"/>
    </vehicle>
    <vehicle id="E1__1__background.7" type="background" depart="102.87" departLane="random">
        <route edges="E1 989312046#2"/>
    </vehicle>
    <vehicle id="989312046#0__1__background.7" type="background" depart="103.19" departLane="random">
        <route edges="989312046#0 989312046#2"/>
    </vehicle>
    <vehicle id="E1__1__background.8" type="background" depart="103.28" departLane="random">
        <route edges="E1 429770748#1"/>
    </vehicle>
    <vehicle id="E1__1__background.9" type="background" depart="105.90" departLane="random">
        <route edges="E1 525074961#10 525074961#11"/>
    </vehicle>
    <vehicle id="989312046#0__1__background.8" type="background" depart="106.02" departLane="random">
        <route edges="989312046#0 989312046#2"/>
    </vehicle>
    <vehicle id="989312046#0__1__background.9" type="background" depart="108.14" departLane="random">
        <route edges="989312046#0 E2 E3"/>
    </vehicle>
    <vehicle id="315156946#0__1__background.6" type="background" depart="109.14" departLane="random">
        <route edges="315156946#0 989312046#2"/>
    </vehicle>
    <vehicle id="525074961#6__1__background.3" type="background" depart="111.42" departLane="random">
        <route edges="525074961#6 E2 E3"/>
    </vehicle>
    <vehicle id="525074961#6__1__background.4" type="background" depart="113.47" departLane="random">
        <route edges="525074961#6 525074961#10 525074961#11"/>
    </vehicle>
    <vehicle id="315156946#0__1__background.7" type="background" depart="114.52" departLane="random">
        <route edges="315156946#0 E2 E3"/>
    </vehicle>
    <vehicle id="315156946#0__1__background.8" type="background" depart="117.89" departLane="random">
        <route edges="315156946#0 E2 E3"/>
    </vehicle>
    <vehicle id="315156946#0__1__background.9" type="background" depart="119.78" departLane="random">
        <route edges="315156946#0 989312046#2"/>
    </vehicle>
    <vehicle id="315156946#0__2__background.0" type="background" depart="120.09" departLane="random">
        <route edges="315156946#0 989312046#2"/>
    </vehicle>
    <vehicle id="315156946#0__2__background.1" type="background" depart="120.19" departLane="random">
        <route edges="315156946#0 E2 E3"/>
    </vehicle>
    <vehicle id="E1__2__background.0" type="background" depart="120.29" departLane="random">
        <route edges="E1 525074961#10 525074961#11"/>
    </vehicle>
    <vehicle id="989312046#0__2__background.0" type="background" depart="121.72" departLane="random">
        <route edges="989312046#0 989312046#2"/>
    </vehicle>
    <vehicle id="989312046#0__2__background.1" type="background" depart="123.47" departLane="random">
        <route edges="989312046#0 989312046#2"/>
    </vehicle>
    <vehicle id="315156946#0__2__background.2" type="background" depart="124.84" departLane="random">
        <route edges="315156946#0 E2 E3"/>
    </vehicle>
    <vehicle id="E1__2__background.1" type="background" depart="128.46" departLane="random">
        <route edges="E1 429770748#1"/>
    </vehicle>
    <vehicle id="E1__2__background.2" type="background" depart="128.53" departLane="random">
        <route edges="E1 525074961#10 525074961#11"/>
    </vehicle>
    <vehicle id="989312046#0__2__background.2" type="background" depart="130.17" departLane="random">
        <route edges="989312046#0 989312046#2"/>
    </vehicle>
    <vehicle id="989312046#0__2__background.3" type="background" depart="132.29" departLane="random">
        <route edges="989312046#0 989312046#2"/>
    </vehicle>
    <vehicle id="989312046#0__2__background.4" type="background" depart="132.41" departLane="random">
        <route edges="989312046#0 429770748#1"/>
    </vehicle>
    <vehicle id="989312046#0__2__background.5" type="background" depart="134.01" departLane="random">
        <route edges="989312046#0 429770748#1"/>
    </vehicle>
    <vehicle id="E1__2__background.3" type="background" depart="134.15" departLane="random">
        <route edges="E1 429770748#1"/>
    </vehicle>
    <vehicle id="525074961#6__2__background.0" type="background" depart="134.36" departLane="random">
        <route edges="525074961#6 525074961#10 525074961#11"/>
    </vehicle>
    <vehicle id="525074961#6__2__background.1" type="background" depart="136.26" departLane="random">
        <route edges="525074961#6 525074961#10 525074961#11"/>
    </vehicle>
    <vehicle id="989312046#0__2__background.6" type="background" depart="136.73" departLane="random">
        <route edges="989312046#0 E2 E3"/>
    </vehicle>
    <vehicle id="E1__2__background.4" type="background" depart="137.86" departLane="random">
        <route edges="E1 429770748#1"/>
    </vehicle>
    <vehicle id="E1__2__background.5" type="background" depart="139.56" departLane="random">
        <route edges="E1 989312046#2"/>
    </vehicle>
    <vehicle id="989312046#0__2__background.7" type="background" depart="140.50" departLane="random">
        <route edges="989312046#0 E2 E3"/>
    </vehicle>
    <vehicle id="989312046#0__2__background.8" type="background" depart="143.16" departLane="random">
        <route edges="989312046#0 429770748#1"/>
    </vehicle>
    <vehicle id="E1__2__background.6" type="background" depart="144.00" departLane="random">
        <route edges="E1 429770748#1"/>
    </vehicle>
    <vehicle id="525074961#6__2__background.2" type="background" depart="144.69" departLane="random">
        <route edges="525074961#6 525074961#10 525074961#11"/>
    </vehicle>
    <vehicle id="E1__2__background.7" type="background" depart="145.38" departLane="random">
        <route edges="E1 429770748#1"/>
    </vehicle>
    <vehicle id="315156946#0__2__background.3" type="background" depart="145.80" departLane="random">
        <route edges="315156946#0 989312046#2"/>
    </vehicle>
    <vehicle id="315156946#0__2__background.4" type="background" depart="145.86" departLane="random">
        <route edges="315156946#0 E2 E3"/>
    </vehicle>
    <vehicle id="989312046#0__2__background.9" type="background" depart="147.35" departLane="random">
        <route edges="989312046#0 989312046#2"/>
    </vehicle>
    <vehicle id="E1__2__background.8" type="background" depart="148.54" departLane="random">
        <route edges="E1 525074961#10 525074961#11"/>
    </vehicle>
    <vehicle id="525074961#6__2__background.3" type="background" depart="150.51" departLane="random">
        <route edges="525074961#6 525074961#10 525074961#11"/>
    </vehicle>
    <vehicle id="E1__2__background.9" type="background" depart="151.76" departLane="random">
        <route edges="E1 525074961#10 525074961#11"/>
    </vehicle>
    <vehicle id="315156946#0__2__background.5" type="background" depart="151.85" departLane="random">
        <route edges="315156946#0 525074961#10 525074961#11"/>
    </vehicle>
    <vehicle id="E1__2__background.10" type="background" depart="151.94" departLane="random">
        <route edges="E1 429770748#1"/>
    </vehicle>
    <vehicle id="E1__2__background.11" type="background" depart="152.29" departLane="random">
        <route edges="E1 989312046#2"/>
    </vehicle>
    <vehicle id="E1__2__background.12" type="background" depart="155.15" departLane="random">
        <route edges="E1 429770748#1"/>
    </vehicle>
    <vehicle id="989312046#0__2__background.10" type="background" depart="155.70" departLane="random">
        <route edges="989312046#0 989312046#2"/>
    </vehicle>
    <vehicle id="525074961#6__2__background.4" type="background" depart="157.85" departLane="random">
        <route edges="525074961#6 525074961#10 525074961#11"/>
    </vehicle>
    <vehicle id="989312046#0__2__background.11" type="background" depart="157.85" departLane="random">
        <route edges="989312046#0 989312046#2"/>
    </vehicle>
    <vehicle id="315156946#0__2__background.6" type="background" depart="159.52" departLane="random">
        <route edges="315156946#0 989312046#2"/>
    </vehicle>
    <vehicle id="525074961#6__2__background.5" type="background" depart="159.82" departLane="random">
        <route edges="525074961#6 525074961#10 525074961#11"/>
    </vehicle>
    <vehicle id="315156946#0__2__background.7" type="background" depart="162.11" departLane="random">
        <route edges="315156946#0 E2 E3"/>
    </vehicle>
    <vehicle id="315156946#0__2__background.8" type="background" depart="162.53" departLane="random">
        <route edges="315156946#0 525074961#10 525074961#11"/>
    </vehicle>
    <vehicle id="315156946#0__2__background.9" type="background" depart="163.32" departLane="random">
        <route edges="315156946#0 525074961#10 525074961#11"/>
    </vehicle>
    <vehicle id="315156946#0__2__background.10" type="background" depart="163.99" departLane="random">
        <route edges="315156946#0 525074961#10 525074961#11"/>
    </vehicle>
    <vehicle id="525074961#6__2__background.6" type="background" depart="164.08" departLane="random">
        <route edges="525074961#6 525074961#10 525074961#11"/>
    </vehicle>
    <vehicle id="989312046#0__2__background.12" type="background" depart="164.98" departLane="random">
        <route edges="989312046#0 429770748#1"/>
    </vehicle>
    <vehicle id="315156946#0__2__background.11" type="background" depart="165.08" departLane="random">
        <route edges="315156946#0 525074961#10 525074961#11"/>
    </vehicle>
    <vehicle id="525074961#6__2__background.7" type="background" depart="165.09" departLane="random">
        <route edges="525074961#6 525074961#10 525074961#11"/>
    </vehicle>
    <vehicle id="525074961#6__2__background.8" type="background" depart="167.20" departLane="random">
        <route edges="525074961#6 525074961#10 525074961#11"/>
    </vehicle>
    <vehicle id="989312046#0__2__background.13" type="background" depart="167.92" departLane="random">
        <route edges="989312046#0 989312046#2"/>
    </vehicle>
    <vehicle id="E1__2__background.13" type="background" depart="169.49" departLane="random">
        <route edges="E1 989312046#2"/>
    </vehicle>
    <vehicle id="315156946#0__2__background.12" type="background" depart="170.44" departLane="random">
        <route edges="315156946#0 E2 E3"/>
    </vehicle>
    <vehicle id="989312046#0__2__background.14" type="background" depart="170.49" departLane="random">
        <route edges="989312046#0 989312046#2"/>
    </vehicle>
    <vehicle id="315156946#0__2__background.13" type="background" depart="172.24" departLane="random">
        <route edges="315156946#0 989312046#2"/>
    </vehicle>
    <vehicle id="525074961#6__2__background.9" type="background" depart="173.82" departLane="random">
        <route edges="525074961#6 525074961#10 525074961#11"/>
    </vehicle>
    <vehicle id="E1__2__background.14" type="background" depart="177.22" departLane="random">
        <route edges="E1 429770748#1"/>
    </vehicle>
    <vehicle id="315156946#0__2__background.14" type="background" depart="178.72" departLane="random">
        <route edges="315156946#0 525074961#10 525074961#11"/>
    </vehicle>
    <vehicle id="989312046#0__3__background.0" type="background" depart="180.02" departLane="random">
        <route edges="989312046#0 989312046#2"/>
    </vehicle>
    <vehicle id="315156946#0__3__background.0" type="background" depart="181.00" departLane="random">
        <route edges="315156946#0 525074961#10 525074961#11"/>
    </vehicle>
    <vehicle id="989312046#0__3__background.1" type="background" depart="181.48" departLane="random">
        <route edges="989312046#0 989312046#2"/>
    </vehicle>
    <vehicle id="989312046#0__3__background.2" type="background" depart="182.31" departLane="random">
        <route edges="989312046#0 429770748#1"/>
    </vehicle>
    <vehicle id="E1__3__background.0" type="background" depart="183.60" departLane="random">
        <route edges="E1 989312046#2"/>
    </vehicle>
    <vehicle id="315156946#0__3__background.1" type="background" depart="185.41" departLane="random">
        <route edges="315156946#0 989312046#2"/>
    </vehicle>
    <vehicle id="E1__3__background.1" type="background" depart="188.79" departLane="random">
        <route edges="E1 525074961#10 525074961#11"/>
    </vehicle>
    <vehicle id="525074961#6__3__background.0" type="background" depart="188.82" departLane="random">
        <route edges="525074961#6 E2 E3"/>
    </vehicle>
    <vehicle id="E1__3__background.2" type="background" depart="189.26" departLane="random">
        <route edges="E1 429770748#1"/>
    </vehicle>
    <vehicle id="315156946#0__3__background.2" type="background" depart="189.59" departLane="random">
        <route edges="315156946#0 525074961#10 525074961#11"/>
    </vehicle>
    <vehicle id="989312046#0__3__background.3" type="background" depart="189.59" departLane="random">
        <route edges="989312046#0 989312046#2"/>
    </vehicle>
    <vehicle id="525074961#6__3__background.1" type="background" depart="193.75" departLane="random">
        <route edges="525074961#6 525074961#10 525074961#11"/>
    </vehicle>
    <vehicle id="315156946#0__3__background.3" type="background" depart="196.61" departLane="random">
        <route edges="315156946#0 989312046#2"/>
    </vehicle>
    <vehicle id="315156946#0__3__background.4" type="background" depart="197.09" departLane="random">
        <route edges="315156946#0 E2 E3"/>
    </vehicle>
    <vehicle id="E1__3__background.3" type="background" depart="198.82" departLane="random">
        <route edges="E1 429770748#1"/>
    </vehicle>
    <vehicle id="989312046#0__3__background.4" type="background" depart="199.11" departLane="random">
        <route edges="989312046#0 429770748#1"/>
    </vehicle>
    <vehicle id="989312046#0__3__background.5" type="background" depart="199.40" departLane="random">
        <route edges="989312046#0 989312046#2"/>
    </vehicle>
    <vehicle id="525074961#6__3__background.2" type="background" depart="201.15" departLane="random">
        <route edges="525074961#6 525074961#10 525074961#11"/>
    </vehicle>
    <vehicle id="525074961#6__3__background.3" type="background" depart="201.25" departLane="random">
        <route edges="525074961#6 E2 E3"/>
    </vehicle>
    <vehicle id="E1__3__background.4" type="background" depart="202.40" departLane="random">
        <route edges="E1 989312046#2"/>
    </vehicle>
    <vehicle id="989312046#0__3__background.6" type="background" depart="203.38" departLane="random">
        <route edges="989312046#0 989312046#2"/>
    </vehicle>
    <vehicle id="525074961#6__3__background.4" type="background" depart="205.18" departLane="random">
        <route edges="525074961#6 525074961#10 525074961#11"/>
    </vehicle>
    <vehicle id="989312046#0__3__background.7" type="background" depart="205.85" departLane="random">
        <route edges="989312046#0 989312046#2"/>
    </vehicle>
    <vehicle id="315156946#0__3__background.5" type="background" depart="210.15" departLane="random">
        <route edges="315156946#0 E2 E3"/>
    </vehicle>
    <vehicle id="989312046#0__3__background.8" type="background" depart="211.41" departLane="random">
        <route edges="989312046#0 989312046#2"/>
    </vehicle>
    <vehicle id="315156946#0__3__background.6" type="background" depart="213.16" departLane="random">
        <route edges="315156946#0 E2 E3"/>
    </vehicle>
    <vehicle id="989312046#0__3__background.9" type="background" depart="213.35" departLane="random">
        <route edges="989312046#0 989312046#2"/>
    </vehicle>
    <vehicle id="989312046#0__3__background.10" type="background" depart="213.66" departLane="random">
        <route edges="989312046#0 E2 E3"/>
    </vehicle>
    <vehicle id="E1__3__background.5" type="background" depart="214.31" departLane="random">
        <route edges="E1 429770748#1"/>
    </vehicle>
    <vehicle id="989312046#0__3__background.11" type="background" depart="214.35" departLane="random">
        <route edges="989312046#0 989312046#2"/>
    </vehicle>
    <vehicle id="E1__3__background.6" type="background" depart="214.60" departLane="random">
        <route edges="E1 429770748#1"/>
    </vehicle>
    <vehicle id="E1__3__background.7" type="background" depart="216.68" departLane="random">
        <route edges="E1 429770748#1"/>
    </vehicle>
    <vehicle id="E1__3__background.8" type="background" depart="217.11" departLane="random">
        <route edges="E1 429770748#1"/>
    </vehicle>
    <vehicle id="315156946#0__3__background.7" type="background" depart="219.77" departLane="random">
        <route edges="315156946#0 525074961#10 525074961#11"/>
    </vehicle>
    <vehicle id="525074961#6__3__background.5" type="background" depart="220.90" departLane="random">
        <route edges="525074961#6 525074961#10 525074961#11"/>
    </vehicle>
    <vehicle id="989312046#0__3__background.12" type="background" depart="222.62" departLane="random">
        <route edges="989312046#0 429770748#1"/>
    </vehicle>
    <vehicle id="989312046#0__3__background.13" type="background" depart="223.50" departLane="random">
        <route edges="989312046#0 989312046#2"/>
    </vehicle>
    <vehicle id="E1__3__background.9" type="background" depart="224.11" departLane="random">
        <route edges="E1 525074961#10 525074961#11"/>
    </vehicle>
    <vehicle id="989312046#0__3__background.14" type="background" depart="224.42" departLane="random">
        <route edges="989312046#0 E2 E3"/>
    </vehicle>
    <vehicle id="525074961#6__3__background.6" type="background" depart="224.49" departLane="random">
        <route edges="525074961#6 525074961#10 525074961#11"/>
    </vehicle>
    <vehicle id="E1__3__background.10" type="background" depart="225.63" departLane="random">
        <route edges="E1 429770748#1"/>
    </vehicle>
    <vehicle id="525074961#6__3__background.7" type="background" depart="225.73" departLane="random">
        <route edges="525074961#6 429770748#1"/>
    </vehicle>
    <vehicle id="315156946#0__3__background.8" type="background" depart="228.77" departLane="random">
        <route edges="315156946#0 E2 E3"/>
    </vehicle>
    <vehicle id="525074961#6__3__background.8" type="background" depart="228.93" departLane="random">
        <route edges="525074961#6 E2 E3"/>
    </vehicle>
    <vehicle id="315156946#0__3__background.9" type="background" depart="230.83" departLane="random">
        <route edges="315156946#0 E2 E3"/>
    </vehicle>
    <vehicle id="E1__3__background.11" type="background" depart="231.29" departLane="random">
        <route edges="E1 989312046#2"/>
    </vehicle>
    <vehicle id="315156946#0__3__background.10" type="background" depart="231.40" departLane="random">
        <route edges="315156946#0 E2 E3"/>
    </vehicle>
    <vehicle id="525074961#6__3__background.9" type="background" depart="231.75" departLane="random">
        <route edges="525074961#6 E2 E3"/>
    </vehicle>
    <vehicle id="315156946#0__3__background.11" type="background" depart="232.84" departLane="random">
        <route edges="315156946#0 E2 E3"/>
    </vehicle>
    <vehicle id="315156946#0__3__background.12" type="background" depart="233.90" departLane="random">
        <route edges="315156946#0 E2 E3"/>
    </vehicle>