<?xml version="1.0" encoding="UTF-8"?>

<!-- generated on 2026-04-13T16:24:18.127145+08:00 by Eclipse SUMO jtrrouter 1.26.0
<jtrrouterConfiguration xmlns:xsi="http://www.w3.org/2001/XMLSchema-instance" xsi:noNamespaceSchemaLocation="http://sumo.dlr.de/xsd/jtrrouterConfiguration.xsd">

    <input>
        <net-file value="/home/wmn/Coding_Project/TrafficAlpha/SingleTSC_TranSimHub/exp_junction/SouthKorea_Songdo/./networks/easy.net.xml"/>
        <route-files value="/home/wmn/Coding_Project/TrafficAlpha/SingleTSC_TranSimHub/exp_junction/SouthKorea_Songdo/./testflow.trip.xml"/>
        <turn-ratio-files value="/home/wmn/Coding_Project/TrafficAlpha/SingleTSC_TranSimHub/exp_junction/SouthKorea_Songdo/./testflow.turndefs.xml"/>
    </input>

    <output>
        <output-file value="/home/wmn/Coding_Project/TrafficAlpha/SingleTSC_TranSimHub/exp_junction/SouthKorea_Songdo/./routes/random_perturbation.rou.xml"/>
    </output>

    <processing>
        <randomize-flows value="True"/>
        <accept-all-destinations value="True"/>
    </processing>

    <defaults>
        <departlane value="random"/>
    </defaults>

    <report>
        <no-warnings value="true"/>
    </report>

    <random_number>
        <seed value="777"/>
    </random_number>

</jtrrouterConfiguration>
-->

<routes xmlns:xsi="http://www.w3.org/2001/XMLSchema-instance" xsi:noNamespaceSchemaLocation="http://sumo.dlr.de/xsd/routes_file.xsd">
    <vType id="background" length="5.00" color="220,220,220" tau="1.0"/>
    <vehicle id="525074961#6__0__background.0" type="background" depart="0.03" departLane="random">
        <route edges="525074961#6 525074961#10 525074961#11"/>
    </vehicle>
    <vehicle id="E1__0__background.0" type="background" depart="0.09" departLane="random">
        <route edges="E1 429770748#1"/>
    </vehicle>
    <vehicle id="E1__0__background.1" type="background" depart="0.19" departLane="random">
        <route edges="E1 429770748#1"/>
    </vehicle>
    <vehicle id="315156946#0__0__background.0" type="background" depart="0.84" departLane="random">
        <route edges="315156946#0 E2 E3"/>
    </vehicle>
    <vehicle id="525074961#6__0__background.1" type="background" depart="1.54" departLane="random">
        <route edges="525074961#6 525074961#10 525074961#11"/>
    </vehicle>
    <vehicle id="E1__0__background.2" type="background" depart="1.72" departLane="random">
        <route edges="E1 989312046#2"/>
    </vehicle>
    <vehicle id="525074961#6__0__background.2" type="background" depart="3.43" departLane="random">
        <route edges="525074961#6 E2 E3"/>
    </vehicle>
    <vehicle id="525074961#6__0__background.3" type="background" depart="3.47" departLane="random">
        <route edges="525074961#6 525074961#10 525074961#11"/>
    </vehicle>
    <vehicle id="989312046#0__0__background.0" type="background" depart="3.58" departLane="random">
        <route edges="989312046#0 429770748#1"/>
    </vehicle>
    <vehicle id="315156946#0__0__background.1" type="background" depart="4.16" departLane="random">
        <route edges="315156946#0 E2 E3"/>
    </vehicle>
    <vehicle id="315156946#0__0__background.2" type="background" depart="4.54" departLane="random">
        <route edges="315156946#0 989312046#2"/>
    </vehicle>
    <vehicle id="E1__0__background.3" type="background" depart="4.84" departLane="random">
        <route edges="E1 525074961#10 525074961#11"/>
    </vehicle>
    <vehicle id="315156946#0__0__background.3" type="background" depart="5.68" departLane="random">
        <route edges="315156946#0 525074961#10 525074961#11"/>
    </vehicle>
    <vehicle id="315156946#0__0__background.4" type="background" depart="5.99" departLane="random">
        <route edges="315156946#0 525074961#10 525074961#11"/>
    </vehicle>
    <vehicle id="989312046#0__0__background.1" type="background" depart="6.54" departLane="random">
        <route edges="989312046#0 429770748#1"/>
    </vehicle>
    <vehicle id="989312046#0__0__background.2" type="background" depart="6.80" departLane="random">
        <route edges="989312046#0 989312046#2"/>
    </vehicle>
    <vehicle id="989312046#0__0__background.3" type="background" depart="7.71" departLane="random">
        <route edges="989312046#0 E2 E3"/>
    </vehicle>
    <vehicle id="315156946#0__0__background.5" type="background" depart="7.95" departLane="random">
        <route edges="315156946#0 525074961#10 525074961#11"/>
    </vehicle>
    <vehicle id="525074961#6__0__background.4" type="background" depart="9.31" departLane="random">
        <route edges="525074961#6 525074961#10 525074961#11"/>
    </vehicle>
    <vehicle id="E1__0__background.4" type="background" depart="10.17" departLane="random">
        <route edges="E1 429770748#1"/>
    </vehicle>
    <vehicle id="989312046#0__0__background.4" type="background" depart="10.82" departLane="random">
        <route edges="989312046#0 E2 E3"/>
    </vehicle>
    <vehicle id="989312046#0__0__background.5" type="background" depart="10.88" departLane="random">
        <route edges="989312046#0 989312046#2"/>
    </vehicle>
    <vehicle id="989312046#0__0__background.6" type="background" depart="11.03" departLane="random">
        <route edges="989312046#0 E2 E3"/>
    </vehicle>
    <vehicle id="525074961#6__0__background.5" type="background" depart="11.26" departLane="random">
        <route edges="525074961#6 525074961#10 525074961#11"/>
    </vehicle>
    <vehicle id="525074961#6__0__background.6" type="background" depart="12.29" departLane="random">
        <route edges="525074961#6 525074961#10 525074961#11"/>
    </vehicle>
    <vehicle id="989312046#0__0__background.7" type="background" depart="12.32" departLane="random">
        <route edges="989312046#0 989312046#2"/>
    </vehicle>
    <vehicle id="525074961#6__0__background.7" type="background" depart="12.41" departLane="random">
        <route edges="525074961#6 525074961#10 525074961#11"/>
    </vehicle>
    <vehicle id="525074961#6__0__background.8" type="background" depart="13.67" departLane="random">
        <route edges="525074961#6 525074961#10 525074961#11"/>
    </vehicle>
    <vehicle id="E1__0__background.5" type="background" depart="14.01" departLane="random">
        <route edges="E1 429770748#1"/>
    </vehicle>
    <vehicle id="525074961#6__0__background.9" type="background" depart="15.08" departLane="random">
        <route edges="525074961#6 525074961#10 525074961#11"/>
    </vehicle>
    <vehicle id="525074961#6__0__background.10" type="background" depart="15.59" departLane="random">
        <route edges="525074961#6 525074961#10 525074961#11"/>
    </vehicle>
    <vehicle id="315156946#0__0__background.6" type="background" depart="15.68" departLane="random">
        <route edges="315156946#0 E2 E3"/>
    </vehicle>
    <vehicle id="989312046#0__0__background.8" type="background" depart="15.93" departLane="random">
        <route edges="989312046#0 989312046#2"/>
    </vehicle>
    <vehicle id="E1__0__background.6" type="background" depart="16.26" departLane="random">
        <route edges="E1 429770748#1"/>
    </vehicle>
    <vehicle id="525074961#6__0__background.11" type="background" depart="16.46" departLane="random">
        <route edges="525074961#6 525074961#10 525074961#11"/>
    </vehicle>
    <vehicle id="525074961#6__0__background.12" type="background" depart="16.73" departLane="random">
        <route edges="525074961#6 525074961#10 525074961#11"/>
    </vehicle>
    <vehicle id="315156946#0__0__background.7" type="background" depart="16.75" departLane="random">
        <route edges="315156946#0 E2 E3"/>
    </vehicle>
    <vehicle id="989312046#0__0__background.9" type="background" depart="17.37" departLane="random">
        <route edges="989312046#0 989312046#2"/>
    </vehicle>
    <vehicle id="525074961#6__0__background.13" type="background" depart="18.84" departLane="random">
        <route edges="525074961#6 525074961#10 525074961#11"/>
    </vehicle>
    <vehicle id="989312046#0__0__background.10" type="background" depart="19.28" departLane="random">
        <route edges="989312046#0 E2 E3"/>
    </vehicle>
    <vehicle id="989312046#0__0__background.11" type="background" depart="20.32" departLane="random">
        <route edges="989312046#0 989312046#2"/>
    </vehicle>
    <vehicle id="525074961#6__0__background.14" type="background" depart="20.50" departLane="random">
        <route edges="525074961#6 525074961#10 525074961#11"/>
    </vehicle>
    <vehicle id="E1__0__background.7" type="background" depart="23.16" departLane="random">
        <route edges="E1 429770748#1"/>
    </vehicle>
    <vehicle id="315156946#0__0__background.8" type="background" depart="23.35" departLane="random">
        <route edges="315156946#0 525074961#10 525074961#11"/>
    </vehicle>
    <vehicle id="E1__0__background.8" type="background" depart="24.69" departLane="random">
        <route edges="E1 429770748#1"/>
    </vehicle>
    <vehicle id="315156946#0__0__background.9" type="background" depart="25.22" departLane="random">
        <route edges="315156946#0 989312046#2"/>
    </vehicle>
    <vehicle id="E1__0__background.9" type="background" depart="25.80" departLane="random">
        <route edges="E1 525074961#10 525074961#11"/>
    </vehicle>
    <vehicle id="E1__0__background.10" type="background" depart="25.86" departLane="random">
        <route edges="E1 429770748#1"/>
    </vehicle>
    <vehicle id="989312046#0__0__background.12" type="background" depart="25.90" departLane="random">
        <route edges="989312046#0 429770748#1"/>
    </vehicle>
    <vehicle id="315156946#0__0__background.10" type="background" depart="26.23" departLane="random">
        <route edges="315156946#0 E2 E3"/>
    </vehicle>
    <vehicle id="315156946#0__0__background.11" type="background" depart="26.40" departLane="random">
        <route edges="315156946#0 989312046#2"/>
    </vehicle>
    <vehicle id="989312046#0__0__background.13" type="background" depart="26.70" departLane="random">
        <route edges="989312046#0 E2 E3"/>
    </vehicle>
    <vehicle id="989312046#0__0__background.14" type="background" depart="26.95" departLane="random">
        <route edges="989312046#0 989312046#2"/>
    </vehicle>
    <vehicle id="E1__0__background.11" type="background" depart="27.35" departLane="random">
        <route edges="E1 429770748#1"/>
    </vehicle>
    <vehicle id="315156946#0__0__background.12" type="background" depart="28.29" departLane="random">
        <route edges="315156946#0 989312046#2"/>
    </vehicle>
    <vehicle id="989312046#0__0__background.15" type="background" depart="28.79" departLane="random">
        <route edges="989312046#0 989312046#2"/>
    </vehicle>
    <vehicle id="525074961#6__0__background.15" type="background" depart="29.83" departLane="random">
        <route edges="525074961#6 E2 E3"/>
    </vehicle>
    <vehicle id="315156946#0__0__background.13" type="background" depart="30.89" departLane="random">
        <route edges="315156946#0 E2 E3"/>
    </vehicle>
    <vehicle id="315156946#0__0__background.14" type="background" depart="31.08" departLane="random">
        <route edges="315156946#0 E2 E3"/>
    </vehicle>
    <vehicle id="E1__0__background.12" type="background" depart="31.85" departLane="random">
        <route edges="E1 525074961#10 525074961#11"/>
    </vehicle>
    <vehicle id="315156946#0__0__background.15" type="background" depart="33.66" departLane="random">
        <route edges="315156946#0 E2 E3"/>
    </vehicle>
    <vehicle id="E1__0__background.13" type="background" depart="35.70" departLane="random">
        <route edges="E1 525074961#10 525074961#11"/>
    </vehicle>
    <vehicle id="315156946#0__0__background.16" type="background" depart="35.91" departLane="random">
        <route edges="315156946#0 E2 E3"/>
    </vehicle>
    <vehicle id="989312046#0__0__background.16" type="background" depart="36.79" departLane="random">
        <route edges="989312046#0 E2 E3"/>
    </vehicle>
    <vehicle id="E1__0__background.14" type="background" depart="37.85" departLane="random">
        <route edges="E1 525074961#10 525074961#11"/>
    </vehicle>
    <vehicle id="525074961#6__0__background.16" type="background" depart="37.85" departLane="random">
        <route edges="525074961#6 E2 E3"/>
    </vehicle>
    <vehicle id="315156946#0__0__background.17" type="background" depart="39.15" departLane="random">
        <route edges="315156946#0 989312046#2"/>
    </vehicle>
    <vehicle id="E1__0__background.15" type="background" depart="39.52" departLane="random">
        <route edges="E1 429770748#1"/>
    </vehicle>
    <vehicle id="E1__0__background.16" type="background" depart="39.82" departLane="random">
        <route edges="E1 525074961#10 525074961#11"/>
    </vehicle>
    <vehicle id="989312046#0__0__background.17" type="background" depart="40.54" departLane="random">
        <route edges="989312046#0 989312046#2"/>
    </vehicle>
    <vehicle id="989312046#0__0__background.18" type="background" depart="40.85" departLane="random">
        <route edges="989312046#0 989312046#2"/>
    </vehicle>
    <vehicle id="989312046#0__0__background.19" type="background" depart="41.30" departLane="random">
        <route edges="989312046#0 989312046#2"/>
    </vehicle>
    <vehicle id="E1__0__background.17" type="background" depart="42.11" departLane="random">
        <route edges="E1 429770748#1"/>
    </vehicle>
    <vehicle id="E1__0__background.18" type="background" depart="42.53" departLane="random">
        <route edges="E1 429770748#1"/>
    </vehicle>
    <vehicle id="525074961#6__0__background.17" type="background" depart="42.87" departLane="random">
        <route edges="525074961#6 429770748#1"/>
    </vehicle>
    <vehicle id="315156946#0__0__background.18" type="background" depart="43.19" departLane="random">
        <route edges="315156946#0 525074961#10 525074961#11"/>
    </vehicle>
    <vehicle id="525074961#6__0__background.18" type="background" depart="43.28" departLane="random">
        <route edges="525074961#6 525074961#10 525074961#11"/>
    </vehicle>
    <vehicle id="E1__0__background.19" type="background" depart="43.32" departLane="random">
        <route edges="E1 525074961#10 525074961#11"/>
    </vehicle>
    <vehicle id="E1__0__background.20" type="background" depart="43.99" departLane="random">
        <route edges="E1 429770748#1"/>
    </vehicle>
    <vehicle id="E1__0__background.21" type="background" depart="44.08" departLane="random">
        <route edges="E1 429770748#1"/>
    </vehicle>
    <vehicle id="989312046#0__0__background.20" type="background" depart="44.46" departLane="random">
        <route edges="989312046#0 989312046#2"/>
    </vehicle>
    <vehicle id="E1__0__background.22" type="background" depart="44.98" departLane="random">
        <route edges="E1 429770748#1"/>
    </vehicle>
    <vehicle id="E1__0__background.23" type="background" depart="45.08" departLane="random">
        <route edges="E1 429770748#1"/>
    </vehicle>
    <vehicle id="525074961#6__0__background.19" type="background" depart="45.90" departLane="random">
        <route edges="525074961#6 525074961#10 525074961#11"/>
    </vehicle>
    <vehicle id="315156946#0__0__background.19" type="background" depart="46.02" departLane="random">
        <route edges="315156946#0 E2 E3"/>
    </vehicle>
    <vehicle id="315156946#0__0__background.20" type="background" depart="46.02" departLane="random">
        <route edges="315156946#0 525074961#10 525074961#11"/>
    </vehicle>
    <vehicle id="E1__0__background.24" type="background" depart="47.20" departLane="random">
        <route edges="E1 429770748#1"/>
    </vehicle>
    <vehicle id="E1__0__background.25" type="background" depart="47.92" departLane="random">
        <route edges="E1 989312046#2"/>
    </vehicle>
    <vehicle id="989312046#0__0__background.21" type="background" depart="47.92" departLane="random">
        <route edges="989312046#0 989312046#2"/>
    </vehicle>
    <vehicle id="315156946#0__0__background.21" type="background" depart="48.14" departLane="random">
        <route edges="315156946#0 E2 E3"/>
    </vehicle>
    <vehicle id="989312046#0__0__background.22" type="background" depart="48.23" departLane="random">
        <route edges="989312046#0 989312046#2"/>
    </vehicle>
    <vehicle id="525074961#6__0__background.20" type="background" depart="49.14" departLane="random">
        <route edges="525074961#6 525074961#10 525074961#11"/>
    </vehicle>
    <vehicle id="E1__0__background.26" type="background" depart="50.44" departLane="random">
        <route edges="E1 525074961#10 525074961#11"/>
    </vehicle>
    <vehicle id="E1__0__background.27" type="background" depart="50.49" departLane="random">
        <route edges="E1 429770748#1"/>
    </vehicle>
    <vehicle id="525074961#6__0__background.21" type="background" depart="51.42" departLane="random">
        <route edges="525074961#6 525074961#10 525074961#11"/>
    </vehicle>
    <vehicle id="315156946#0__0__background.22" type="background" depart="51.52" departLane="random">
        <route edges="315156946#0 525074961#10 525074961#11"/>
    </vehicle>
    <vehicle id="989312046#0__0__background.23" type="background" depart="52.13" departLane="random">
        <route edges="989312046#0 429770748#1"/>
    </vehicle>
    <vehicle id="E1__0__background.28" type="background" depart="52.24" departLane="random">
        <route edges="E1 429770748#1"/>
    </vehicle>
    <vehicle id="315156946#0__0__background.23" type="background" depart="53.45" departLane="random">
        <route edges="315156946#0 E2 E3"/>
    </vehicle>
    <vehicle id="525074961#6__0__background.22" type="background" depart="53.47" departLane="random">
        <route edges="525074961#6 525074961#10 525074961#11"/>
    </vehicle>
    <vehicle id="525074961#6__0__background.23" type="background" depart="54.52" departLane="random">
        <route edges="525074961#6 E2 E3"/>
    </vehicle>
    <vehicle id="989312046#0__0__background.24" type="background" depart="54.94" departLane="random">
        <route edges="989312046#0 989312046#2"/>
    </vehicle>
    <vehicle id="315156946#0__0__background.24" type="background" depart="56.15" departLane="random">
        <route edges="315156946#0 E2 E3"/>
    </vehicle>
    <vehicle id="525074961#6__0__background.24" type="background" depart="57.89" departLane="random">
        <route edges="525074961#6 525074961#10 525074961#11"/>
    </vehicle>
    <vehicle id="E1__0__background.29" type="background" depart="58.72" departLane="random">
        <route edges="E1 525074961#10 525074961#11"/>
    </vehicle>
    <vehicle id="315156946#0__0__background.25" type="background" depart="59.78" departLane="random">
        <route edges="315156946#0 E2 E3"/>
    </vehicle>
    <vehicle id="315156946#0__1__background.0" type="background" depart="60.02" departLane="random">
        <route edges="315156946#0 525074961#10 525074961#11"/>
    </vehicle>
    <vehicle id="989312046#0__1__background.0" type="background" depart="60.29" departLane="random">
        <route edges="989312046#0 989312046#2"/>
    </vehicle>
    <vehicle id="315156946#0__1__background.1" type="background" depart="61.00" departLane="random">
        <route edges="315156946#0 525074961#10 525074961#11"/>
    </vehicle>
    <vehicle id="E1__1__background.0" type="background" depart="61.21" departLane="random">
        <route edges="E1 429770748#1"/>
    </vehicle>
    <vehicle id="315156946#0__1__background.2" type="background" depart="61.48" departLane="random">
        <route edges="315156946#0 E2 E3"/>
    </vehicle>
    <vehicle id="989312046#0__1__background.1" type="background" depart="62.31" departLane="random">
        <route edges="989312046#0 989312046#2"/>
    </vehicle>
    <vehicle id="525074961#6__1__background.0" type="background" depart="63.60" departLane="random">
        <route edges="525074961#6 525074961#10 525074961#11"/>
    </vehicle>
    <vehicle id="315156946#0__1__background.3" type="background" depart="65.41" departLane="random">
        <route edges="315156946#0 E2 E3"/>
    </vehicle>
    <vehicle id="E1__1__background.1" type="background" depart="67.55" departLane="random">
        <route edges="E1 429770748#1"/>
    </vehicle>
    <vehicle id="989312046#0__1__background.2" type="background" depart="68.46" departLane="random">
        <route edges="989312046#0 429770748#1"/>
    </vehicle>
    <vehicle id="989312046#0__1__background.3" type="background" depart="68.53" departLane="random">
        <route edges="989312046#0 989312046#2"/>
    </vehicle>
    <vehicle id="525074961#6__1__background.1" type="background" depart="68.79" departLane="random">
        <route edges="525074961#6 E2 E3"/>
    </vehicle>
    <vehicle id="525074961#6__1__background.2" type="background" depart="68.82" departLane="random">
        <route edges="525074961#6 E2 E3"/>
    </vehicle>
    <vehicle id="525074961#6__1__background.3" type="background" depart="69.26" departLane="random">
        <route edges="525074961#6 525074961#10 525074961#11"/>
    </vehicle>
    <vehicle id="315156946#0__1__background.4" type="background" depart="69.59" departLane="random">
        <route edges="315156946#0 E2 E3"/>
    </vehicle>
    <vehicle id="315156946#0__1__background.5" type="background" depart="69.59" departLane="random">
        <route edges="315156946#0 525074961#10 525074961#11"/>
    </vehicle>
    <vehicle id="315156946#0__1__background.6" type="background" depart="73.75" departLane="random">
        <route edges="315156946#0 989312046#2"/>
    </vehicle>
    <vehicle id="989312046#0__1__background.4" type="background" depart="74.15" departLane="random">
        <route edges="989312046#0 989312046#2"/>
    </vehicle>
    <vehicle id="989312046#0__1__background.5" type="background" depart="74.36" departLane="random">
        <route edges="989312046#0 989312046#2"/>
    </vehicle>
    <vehicle id="E1__1__background.2" type="background" depart="75.95" departLane="random">
        <route edges="E1 429770748#1"/>
    </vehicle>
    <vehicle id="315156946#0__1__background.7" type="background" depart="76.61" departLane="random">
        <route edges="315156946#0 989312046#2"/>
    </vehicle>
    <vehicle id="315156946#0__1__background.8" type="background" depart="77.09" departLane="random">
        <route edges="315156946#0 989312046#2"/>
    </vehicle>
    <vehicle id="525074961#6__1__background.4" type="background" depart="77.41" departLane="random">
        <route edges="525074961#6 525074961#10 525074961#11"/>
    </vehicle>
    <vehicle id="989312046#0__1__background.6" type="background" depart="77.86" departLane="random">
        <route edges="989312046#0 429770748#1"/>
    </vehicle>
    <vehicle id="E1__1__background.3" type="background" depart="78.20" departLane="random">
        <route edges="E1 989312046#2"/>
    </vehicle>
    <vehicle id="525074961#6__1__background.5" type="background" depart="78.82" departLane="random">
        <route edges="525074961#6 525074961#10 525074961#11"/>
    </vehicle>
    <vehicle id="315156946#0__1__background.9" type="background" depart="79.11" departLane="random">
        <route edges="315156946#0 E2 E3"/>
    </vehicle>
    <vehicle id="315156946#0__1__background.10" type="background" depart="79.40" departLane="random">
        <route edges="315156946#0 E2 E3"/>
    </vehicle>
    <vehicle id="989312046#0__1__background.7" type="background" depart="79.56" departLane="random">
        <route edges="989312046#0 989312046#2"/>
    </vehicle>
    <vehicle id="E1__1__background.4" type="background" depart="80.24" departLane="random">
        <route edges="E1 525074961#10 525074961#11"/>
    </vehicle>
    <vehicle id="525074961#6__1__background.6" type="background" depart="81.15" departLane="random">
        <route edges="525074961#6 525074961#10 525074961#11"/>
    </vehicle>
    <vehicle id="525074961#6__1__background.7" type="background" depart="81.25" departLane="random">
        <route edges="525074961#6 525074961#10 525074961#11"/>
    </vehicle>
    <vehicle id="E1__1__background.5" type="background" depart="82.06" departLane="random">
        <route edges="E1 989312046#2"/>
    </vehicle>
    <vehicle id="525074961#6__1__background.8" type="background" depart="82.40" departLane="random">
        <route edges="525074961#6 525074961#10 525074961#11"/>
    </vehicle>
    <vehicle id="315156946#0__1__background.11" type="background" depart="83.38" departLane="random">
        <route edges="315156946#0 525074961#10 525074961#11"/>
    </vehicle>
    <vehicle id="E1__1__background.6" type="background" depart="83.58" departLane="random">
        <route edges="E1 525074961#10 525074961#11"/>
    </vehicle>
    <vehicle id="989312046#0__1__background.8" type="background" depart="84.00" departLane="random">
        <route edges="989312046#0 989312046#2"/>
    </vehicle>
    <vehicle id="525074961#6__1__background.9" type="background" depart="84.84" departLane="random">
        <route edges="525074961#6 429770748#1"/>
    </vehicle>
    <vehicle id="E1__1__background.7" type="background" depart="85.07" departLane="random">
        <route edges="E1 429770748#1"/>
    </vehicle>
    <vehicle id="315156946#0__1__background.12" type="background" depart="85.18" departLane="random">
        <route edges="315156946#0 525074961#10 525074961#11"/>
    </vehicle>
    <vehicle id="989312046#0__1__background.9" type="background" depart="85.38" departLane="random">
        <route edges="989312046#0 989312046#2"/>
    </vehicle>
    <vehicle id="315156946#0__1__background.13" type="background" depart="85.85" departLane="random">
        <route edges="315156946#0 525074961#10 525074961#11"/>
    </vehicle>
    <vehicle id="E1__1__background.8" type="background" depart="86.74" departLane="random">
        <route edges="E1 525074961#10 525074961#11"/>
    </vehicle>
    <vehicle id="E1__1__background.9" type="background" depart="87.54" departLane="random">
        <route edges="E1 525074961#10 525074961#11"/>
    </vehicle>
    <vehicle id="E1__1__background.10" type="background" depart="88.08" departLane="random">
        <route edges="E1 989312046#2"/>
    </vehicle>
    <vehicle id="989312046#0__1__background.10" type="background" depart="88.54" departLane="random">
        <route edges="989312046#0 989312046#2"/>
    </vehicle>
    <vehicle id="E1__1__background.11" type="background" depart="89.73" departLane="random">
        <route edges="E1 429770748#1"/>
    </vehicle>
    <vehicle id="315156946#0__1__background.14" type="background" depart="90.15" departLane="random">
        <route edges="315156946#0 E2 E3"/>
    </vehicle>
    <vehicle id="989312046#0__1__background.11" type="background" depart="90.51" departLane="random">
        <route edges="989312046#0 E2 E3"/>
    </vehicle>
    <vehicle id="315156946#0__1__background.15" type="background" depart="91.41" departLane="random">
        <route edges="315156946#0 E2 E3"/>
    </vehicle>
    <vehicle id="E1__1__background.12" type="background" depart="91.72" departLane="random">
        <route edges="E1 989312046#2"/>
    </vehicle>
    <vehicle id="989312046#0__1__background.12" type="background" depart="91.76" departLane="random">
        <route edges="989312046#0 989312046#2"/>
    </vehicle>
    <vehicle id="989312046#0__1__background.13" type="background" depart="91.94" departLane="random">
        <route edges="989312046#0 989312046#2"/>
    </vehicle>
    <vehicle id="989312046#0__1__background.14" type="background" depart="92.29" departLane="random">
        <route edges="989312046#0 429770748#1"/>
    </vehicle>
    <vehicle id="315156946#0__1__background.16" type="background" depart="93.16" departLane="random">
        <route edges="315156946#0 E2 E3"/>
    </vehicle>
    <vehicle id="989312046#0__1__background.15" type="background" depart="93.35" departLane="random">
        <route edges="989312046#0 989312046#2"/>
    </vehicle>
    <vehicle id="E1__1__background.13" type="background" depart="93.39" departLane="random">
        <route edges="E1 989312046#2"/>
    </vehicle>
    <vehicle id="989312046#0__1__background.16" type="background" depart="93.66" departLane="random">
        <route edges="989312046#0 429770748#1"/>
    </vehicle>
    <vehicle id="525074961#6__1__background.10" type="background" depart="94.31" departLane="random">
        <route edges="525074961#6 525074961#10 525074961#11"/>
    </vehicle>
    <vehicle id="989312046#0__1__background.17" type="background" depart="94.35" departLane="random">
        <route edges="989312046#0 989312046#2"/>
    </vehicle>
    <vehicle id="525074961#6__1__background.11" type="background" depart="94.60" departLane="random">
        <route edges="525074961#6 525074961#10 525074961#11"/>
    </vehicle>
    <vehicle id="989312046#0__1__background.18" type="background" depart="95.15" departLane="random">
        <route edges="989312046#0 989312046#2"/>
    </vehicle>
    <vehicle id="525074961#6__1__background.12" type="background" depart="96.68" departLane="random">
        <route edges="525074961#6 525074961#10 525074961#11"/>
    </vehicle>
    <vehicle id="525074961#6__1__background.13" type="background" depart="97.11" departLane="random">
        <route edges="525074961#6 525074961#10 525074961#11"/>
    </vehicle>
    <vehicle id="E1__1__background.14" type="background" depart="97.22" departLane="random">
        <route edges="E1 429770748#1"/>
    </vehicle>
    <vehicle id="E1__1__background.15" type="background" depart="97.26" departLane="random">
        <route edges="E1 429770748#1"/>
    </vehicle>
    <vehicle id="E1__1__background.16" type="background" depart="97.41" departLane="random">
        <route edges="E1 429770748#1"/>
    </vehicle>
    <vehicle id="E1__1__background.17" type="background" depart="97.44" departLane="random">
        <route edges="E1 429770748#1"/>