<?xml version="1.0" encoding="UTF-8"?>

<!-- generated on 2025-04-18 19:48:23 by Eclipse SUMO netedit Version 1.22.0
-->

<additional xmlns:xsi="http://www.w3.org/2001/XMLSchema-instance" xsi:noNamespaceSchemaLocation="http://sumo.dlr.de/xsd/additional_file.xsd">
    <!-- Shapes -->
    <poly id="1212554374" type="amenity" color="237,199,199" fill="1" layer="-1.00" shape="285.221463,233.296893 291.229156,241.872958 292.532196,240.972993 286.534811,232.396734 285.547379,233.080211 285.221463,233.296893"/>
    <poly id="1212554374#1" type="building" color="255,230,230" fill="1" layer="-1.00" shape="285.221463,233.296893 291.229156,241.872958 292.532196,240.972993 286.534811,232.396734 285.547379,233.080211 285.221463,233.296893"/>
    <poly id="1234912444" type="water" color="181,209,209" fill="0" layer="-4.00" shape="962.304723,674.474463 857.356201,719.749731 803.989769,720.616079 670.019858,788.712202 490.868316,541.758913 394.365180,407.230364 268.761138,231.511038 256.319703,218.035254 238.972676,212.409318 128.693907,194.651737 -101.404319,156.336772 -153.788513,144.841657"/>
    <poly id="150792160" type="residential" color="235,235,227" fill="1" layer="-3.00" shape="57.128565,162.758201 60.441295,142.570000 63.725400,118.658582 77.150547,120.800438 85.657067,122.402912 86.602264,116.721960 116.771797,122.040608 110.195125,158.980443 76.880491,153.111307 74.634283,165.843053 57.128565,162.758201"/>
    <poly id="150792164" type="building" color="255,230,230" fill="1" layer="-1.00" shape="92.919582,135.743053 85.604975,134.461766 86.401337,130.191098 84.166627,129.800820 85.300522,123.185387 78.658446,122.024470 77.260873,129.974766 75.729624,129.704276 73.026131,144.993605 62.980353,143.242710 60.807679,155.496527 61.862871,155.676207 60.520298,163.259748 68.869470,164.721090 69.270306,162.452714 74.866236,163.367278 76.050417,156.684404 72.937631,156.210865 73.925508,150.606689 79.150135,151.517141 79.541080,149.271117 82.769130,149.842237 84.540567,139.834643 92.051654,141.145490 92.919582,135.743053"/>
    <poly id="150792168" type="building" color="255,230,230" fill="1" layer="-1.00" shape="92.051654,141.145490 99.697371,142.487061 97.198393,156.586706 107.130349,158.317593 108.249247,152.001674 111.032373,152.492489 114.715357,131.698900 110.111515,130.898693 110.624207,127.996512 115.507622,128.857968 116.700886,122.108434 102.154548,119.566448 100.914323,126.560683 99.096112,136.824052 92.919582,135.743053 92.051654,141.145490"/>
    <poly id="316843040" type="natural" color="140,196,107" fill="0" layer="-4.00" shape="279.136553,161.230125 284.235425,145.541286 284.272120,121.657621 270.096153,97.076349"/>
    <poly id="694539975" type="building" color="255,230,230" fill="1" layer="-1.00" shape="135.055984,111.656645 148.441757,113.899043 144.783167,135.445777 131.397411,133.203383 135.055984,111.656645"/>
    <poly id="694539976" type="building" color="255,230,230" fill="1" layer="-1.00" shape="133.525674,134.515521 130.444601,152.216844 136.744820,153.295535 138.020054,145.968169 141.734047,146.607761 143.038338,139.180107 139.386401,138.550434 139.898266,135.603939 133.525674,134.515521"/>
    <poly id="694539977" type="commercial" color="209,209,204" fill="1" layer="-3.00" shape="131.397411,133.203383 144.783167,135.445777 141.607401,154.146306 137.190365,153.409082 128.480199,151.943395 128.221660,151.903917 131.397411,133.203383"/>
    <poly id="694539977#1" type="tourism" color="207,245,201" fill="1" layer="-2.00" shape="131.397411,133.203383 144.783167,135.445777 141.607401,154.146306 137.190365,153.409082 128.480199,151.943395 128.221660,151.903917 131.397411,133.203383"/>
    <poly id="694539978" type="building" color="255,230,230" fill="1" layer="-1.00" shape="128.480199,151.943395 125.721345,168.131439 134.741791,169.646714 135.019855,167.979105 140.150863,168.847004 141.061077,163.499191 138.485368,163.070974 139.153762,159.124108 141.305376,159.482705 141.946380,155.724757 136.939691,154.887772 137.190365,153.409082 128.480199,151.943395"/>
    <poly id="694539979" type="building" color="255,230,230" fill="1" layer="-1.00" shape="125.684062,168.342708 139.273254,170.437202 138.220943,178.103945 124.500245,176.144912 125.684062,168.342708"/>
    <poly id="694539983" type="building" color="255,230,230" fill="1" layer="-1.00" shape="168.630059,132.449306 166.495501,145.090273 150.234482,142.392017 150.568369,140.401966 147.103023,139.824202 148.596766,130.952257 150.655192,131.290439 150.951797,129.511657 168.630059,132.449306"/>
    <poly id="694539984" type="commercial" color="209,209,204" fill="1" layer="-3.00" shape="166.495501,145.090273 150.234482,142.392017 148.537888,142.102458 147.554142,147.928200 165.511956,150.927093 166.495501,145.090273"/>
    <poly id="694539985" type="commercial" color="209,209,204" fill="1" layer="-3.00" shape="146.940632,148.205695 165.620444,151.213205 163.849509,163.448377 144.934282,160.533950 146.940632,148.205695"/>
    <poly id="694539986" type="building" color="255,230,230" fill="1" layer="-1.00" shape="163.849509,163.448377 144.934282,160.533950 144.260916,160.369264 143.272478,166.494326 162.850132,169.540394 163.849509,163.448377"/>
    <poly id="694539987" type="building" color="255,230,230" fill="1" layer="-1.00" shape="143.272478,166.494326 162.850132,169.540394 160.665294,182.248803 141.351929,178.998293 142.246637,173.373707 143.921779,173.619337 144.079263,172.120230 142.423489,171.807741 143.272478,166.494326"/>
    <poly id="694541207" type="building" color="255,230,230" fill="1" layer="-1.00" shape="100.953591,172.608171 92.263838,171.131039 85.229235,169.933159 86.065698,165.052195 87.948465,165.371501 88.451051,162.480590 86.475093,162.140868 87.330718,157.181966 95.368767,158.549419 103.065393,159.856788 102.210387,164.848924 100.492970,164.548679 100.018604,167.294985 101.808388,167.604955 100.953591,172.608171"/>
    <poly id="694541208" type="building" color="255,230,230" fill="1" layer="-1.00" shape="111.848341,161.354342 103.065393,159.856788 87.330718,157.181966 81.817045,156.254771 79.632685,168.985356 85.229235,169.933159 92.263838,171.131039 100.953591,172.608171 109.663958,174.084920 110.714855,167.991929 111.848341,161.354342"/>
    <poly id="694667606" type="commercial" color="209,209,204" fill="1" layer="-3.00" shape="201.190262,121.742149 222.565964,124.987298 220.222081,140.214423 198.846398,136.969279 201.190262,121.742149"/>
    <poly id="694667607" type="commercial" color="209,209,204" fill="1" layer="-3.00" shape="220.222081,140.214423 198.846398,136.969279 197.881047,143.226893 215.554290,145.898703 219.266822,146.460762 220.222081,140.214423"/>
    <poly id="694667608" type="building" color="255,230,230" fill="1" layer="-1.00" shape="197.881047,143.226893 215.554290,145.898703 215.131653,148.655116 218.688936,149.186839 217.282404,158.312036 196.061785,155.086156 197.881047,143.226893"/>
    <poly id="694667609" type="building" color="255,230,230" fill="1" layer="-1.00" shape="244.784594,156.676759 222.863350,152.932020 229.792974,112.804942 247.265684,115.779784 242.661420,142.442209 247.109790,143.201039 244.784594,156.676759"/>
    <poly id="694667612" type="building" color="255,230,230" fill="1" layer="-1.00" shape="226.890000,164.890000 196.750000,159.730000 191.790000,188.360000 200.640000,189.880000 221.930000,193.520000 222.280000,191.520000 226.890000,164.890000"/>
    <poly id="694667613" type="amenity" color="237,199,199" fill="1" layer="-1.00" shape="243.592400,197.017594 240.313452,196.480645 227.962757,194.440411 228.256250,192.495451 232.423068,167.802841 232.553251,167.046783 248.465192,169.829247 248.294814,170.641472 246.784396,178.627107 238.963270,177.277675 237.879945,183.293680 245.856524,184.684525 243.646767,196.617600 243.592400,197.017594"/>
    <poly id="694667613#1" type="building" color="255,230,230" fill="1" layer="-1.00" shape="243.592400,197.017594 240.313452,196.480645 227.962757,194.440411 228.256250,192.495451 232.423068,167.802841 232.553251,167.046783 248.465192,169.829247 248.294814,170.641472 246.784396,178.627107 238.963270,177.277675 237.879945,183.293680 245.856524,184.684525 243.646767,196.617600 243.592400,197.017594"/>
    <poly id="694667614" type="building" color="255,230,230" fill="1" layer="-1.00" shape="249.775621,199.007294 265.515527,201.416190 270.129816,174.188373 254.417900,171.623788 254.351561,171.935345 252.779997,180.509503 260.674108,181.901903 259.745941,187.394113 251.894519,186.078492 249.875919,198.307209 249.775621,199.007294"/>
    <poly id="694722891" type="building" color="255,230,230" fill="1" layer="-1.00" shape="135.137275,209.403670 155.762547,213.327753 142.757111,289.044331 122.150765,285.574310 124.149132,273.922235 126.216601,274.193746 125.755873,277.117118 128.546789,277.474796 130.318349,266.924157 128.921539,266.673306 127.842009,272.888742 125.046309,272.276254 127.223019,258.038586 129.469888,258.528384 129.042906,261.052148 131.247711,261.498405 138.151649,220.019648 136.123535,219.647652 135.613044,222.117570 133.026620,221.667391 135.137275,209.403670"/>
    <poly id="694722892" type="building" color="255,230,230" fill="1" layer="-1.00" shape="132.408197,209.044829 130.155515,221.433124 124.858343,220.501854 124.555091,221.926119 119.765727,221.129394 119.554627,222.518681 109.644994,220.876034 110.894598,213.283162 112.171594,205.501372 121.617363,207.152728 132.408197,209.044829"/>
    <poly id="694722893" type="building" color="255,230,230" fill="1" layer="-1.00" shape="109.218277,225.062185 129.693194,228.667658 129.301829,230.891524 125.049538,230.140132 124.722639,231.952731 108.499810,229.087573 109.218277,225.062185"/>
    <poly id="694722894" type="building" color="255,230,230" fill="1" layer="-1.00" shape="107.763430,233.257370 128.238129,236.851762 128.639802,234.627703 124.387719,233.887390 124.704310,232.074984 108.481689,229.220904 107.763430,233.257370"/>
    <poly id="694722895" type="building" color="255,230,230" fill="1" layer="-1.00" shape="106.269016,241.541959 126.743705,245.136348 127.145377,242.912289 122.893297,242.171976 123.209887,240.359570 106.987273,237.505493 106.269016,241.541959"/>
    <poly id="694722896" type="building" color="255,230,230" fill="1" layer="-1.00" shape="107.723861,233.346774 128.198768,236.952244 127.797095,239.176303 123.544806,238.424911 123.228216,240.237318 107.005603,237.383240 107.723861,233.346774"/>
    <poly id="694722897" type="building" color="255,230,230" fill="1" layer="-1.00" shape="109.927465,243.069191 106.745040,260.861090 114.183909,262.173296 115.631356,254.133406 121.404569,255.155481 123.149866,245.403282 109.927465,243.069191"/>
    <poly id="694722898" type="building" color="255,230,230" fill="1" layer="-1.00" shape="108.883094,261.596744 106.653644,274.671733 116.979525,276.517131 117.584272,273.025843 121.412459,273.707613 122.561441,267.346799 118.495331,266.625164 119.004065,263.512487 108.883094,261.596744"/>
    <poly id="694722899" type="building" color="255,230,230" fill="1" layer="-1.00" shape="122.659955,277.540947 116.979525,276.517131 106.653644,274.671733 100.900846,273.638199 99.184264,284.919264 120.900462,288.734152 122.659955,277.540947"/>
    <poly id="694722900" type="commercial" color="209,209,204" fill="1" layer="-3.00" shape="103.036269,260.498478 108.883094,261.596744 119.004065,263.512487 123.006039,264.113417 125.986716,245.460867 106.269016,241.541959 103.036269,260.498478"/>
    <poly id="694722900#1" type="tourism" color="207,245,201" fill="1" layer="-2.00" shape="103.036269,260.498478 108.883094,261.596744 119.004065,263.512487 123.006039,264.113417 125.986716,245.460867 106.269016,241.541959 103.036269,260.498478"/>
    <poly id="694722901" type="building" color="255,230,230" fill="1" layer="-1.00" shape="100.900846,273.638199 106.653644,274.671733 116.979525,276.517131 117.584272,273.025843 121.412459,273.707613 122.561441,267.346799 118.495331,266.625164 119.004065,263.512487 108.883094,261.596744 103.036269,260.498478 100.900846,273.638199"/>
    <poly id="694722902" type="building" color="255,230,230" fill="1" layer="-1.00" shape="86.834485,201.067321 85.304785,209.119840 87.374967,209.535371 86.015845,216.786741 94.023979,218.210163 95.455798,210.436547 96.877727,202.685283 92.492249,201.980729 86.834485,201.067321"/>
    <poly id="694722903" type="building" color="255,230,230" fill="1" layer="-1.00" shape="86.834485,201.067321 85.304785,209.119840 84.502073,213.601198 82.826101,213.311260 82.379963,215.912964 79.142035,215.364196 81.952337,200.272348 86.834485,201.067321"/>
    <poly id="694722904" type="building" color="255,230,230" fill="1" layer="-1.00" shape="76.902136,199.314292 74.199496,214.647938 78.989490,215.477886 81.806981,200.219663 76.902136,199.314292"/>
    <poly id="694722905" type="building" color="255,230,230" fill="1" layer="-1.00" shape="69.222944,216.514568 50.498614,213.330696 53.603429,195.252088 73.620891,198.655512 71.361360,211.775403 65.412886,210.756634 66.212472,206.109094 64.257343,205.780068 63.067025,212.684712 69.687617,213.801690 69.222944,216.514568"/>
    <poly id="694722906" type="building" color="255,230,230" fill="1" layer="-1.00" shape="50.498614,213.330696 69.222944,216.514568 70.391939,216.714278 68.838692,225.709264 48.945586,222.336764 50.498614,213.330696"/>
    <poly id="694722914" type="building" color="255,230,230" fill="1" layer="-1.00" shape="93.672189,220.344627 78.211319,217.420866 77.647721,220.357253 75.847010,220.014244 74.879876,225.074985 76.732335,225.428105 76.549044,226.650632 92.006787,229.408210 93.672189,220.344627"/>
    <poly id="694722915" type="building" color="255,230,230" fill="1" layer="-1.00" shape="92.008242,229.485761 72.495724,226.061758 70.805441,235.447208 90.343467,238.582580 92.008242,229.485761"/>
    <poly id="694722916" type="building" color="255,230,230" fill="1" layer="-1.00" shape="90.316077,238.771499 76.972251,236.561623 76.758867,237.829046 72.485333,237.044819 71.961098,239.880724 89.551065,243.063744 90.316077,238.771499"/>
    <poly id="694722917" type="building" color="255,230,230" fill="1" layer="-1.00" shape="88.869887,246.877864 74.686315,244.428853 74.820767,243.351316 71.427596,242.772217 71.941522,239.936505 89.531696,243.130603 88.869887,246.877864"/>
    <poly id="694722918" type="building" color="255,230,230" fill="1" layer="-1.00" shape="83.047896,278.417420 67.027938,275.371180 68.559281,267.407286 71.860505,268.032440 72.348912,265.485355 75.019045,266.000447 75.357285,264.243046 80.076354,265.140818 79.728221,266.920570 82.398354,267.435664 81.881517,270.116274 84.541133,270.620483 83.047896,278.417420"/>
    <poly id="694722918#1" type="commercial" color="209,209,204" fill="1" layer="-3.00" shape="83.047896,278.417420 67.027938,275.371180 68.559281,267.407286 71.860505,268.032440 72.348912,265.485355 75.019045,266.000447 75.357285,264.243046 80.076354,265.140818 79.728221,266.920570 82.398354,267.435664 81.881517,270.116274 84.541133,270.620483 83.047896,278.417420"/>
    <poly id="694722919" type="commercial" color="209,209,204" fill="1" layer="-3.00" shape="66.796761,276.239963 83.357024,278.954665 85.572818,265.702605 69.182375,262.696563 66.796761,276.239963"/>
    <poly id="694722920" type="leisure" color="207,245,201" fill="1" layer="-2.00" shape="85.572818,265.702605 69.182375,262.696563 66.202161,262.142962 69.318027,243.554350 88.822504,247.100406 85.572818,265.702605"/>
    <poly id="695041378" type="natural" color="140,196,107" fill="1" layer="-4.00" shape="354.499851,-182.845534 324.500821,-185.098027 277.003016,-190.047849 284.588664,-256.253384 254.050906,-192.099889 286.333929,-181.334606 273.711642,-143.406019 290.253320,-140.602036 294.757826,-131.354975 294.683164,-110.041767 292.028944,-97.058616 318.774557,-91.220937 318.298249,-85.825870 320.088307,-75.053921 312.215559,-25.810446 303.654379,24.110907 250.966006,14.537408 236.367660,100.479672 246.160665,106.347063 254.422864,119.114379 265.921968,142.271865 280.054958,173.359416 275.297916,200.124436 270.257152,211.212918 282.248591,223.788381 291.295688,231.675728 316.356256,271.956369 339.820694,254.626446 300.976073,201.305192 333.484431,176.291659 340.391898,169.612316 346.074284,178.438318 356.974108,175.696010 371.917720,174.684346 382.875297,175.021932 398.810993,178.524467 417.899274,181.325123 433.851775,185.725065 441.328810,191.824384 443.320049,198.480930 445.355843,205.313962 441.698308,213.184661 463.502077,232.126098 453.339580,269.797867 424.769617,288.719474 422.508502,296.818901 447.897876,280.406162 456.051649,278.602002 484.628740,307.368631 505.704516,324.339972 524.191682,336.893577 562.960392,332.299189 571.873698,318.201374 574.629765,313.949436 642.018788,188.528898 658.469475,172.738397 662.405030,166.491693 667.502522,158.416769 675.644298,145.508244 703.352624,114.689572 703.214375,79.228006 608.189384,153.510093 608.022621,178.182992 591.252083,217.075602 560.304243,268.147668 556.464905,271.821450 483.384267,273.434959 487.733333,243.042607 494.294716,230.551474 522.574890,198.358536 546.336890,163.324538 554.996891,150.561381 560.587634,130.840483 560.360925,115.439969 553.605687,106.035549 535.240189,90.631380 533.773535,71.796341 542.868104,67.913256 548.810835,69.176134 546.849880,65.234240 544.958218,55.084813 549.420168,44.461685 561.766146,30.288485 576.095518,21.253691 601.046753,11.144388 607.549540,6.523043 612.568132,-1.362013 613.989238,-4.768815 599.268724,-2.298690 592.202429,-1.335111 586.295586,-0.681399 571.700716,2.440270 544.746216,17.906789 534.998244,21.591544 518.618307,22.452626 510.884586,19.716093 496.168045,13.043128 482.803255,4.216988 470.772298,-6.617923 442.152277,-28.845072 390.007069,-56.748731 381.377999,-57.185412 370.790169,-58.693621 347.762017,-66.462957 331.351597,-82.069832 329.083180,-90.305984 326.892945,-98.222206 322.079606,-104.692836 328.756884,-120.355823 323.612782,-130.167191 334.678491,-135.073699 354.499851,-182.845534"/>
    <poly id="695668508" type="commercial" color="209,209,204" fill="1" layer="-3.00" shape="142.757111,289.044331 122.150765,285.574310 124.149132,273.922235 133.026620,221.667391 135.137275,209.403670 155.762547,213.327753 142.757111,289.044331"/>
    <poly id="695668509" type="commercial" color="209,209,204" fill="1" layer="-3.00" shape="99.184264,284.919264 120.900462,288.734152 122.659955,277.540947 100.900846,273.638199 99.184264,284.919264"/>
    <poly id="695675789" type="commercial" color="209,209,204" fill="1" layer="-3.00" shape="207.885551,230.170561 184.610891,226.285042 185.324927,221.472879 189.297549,218.860425 209.161136,222.311233 207.885551,230.170561"/>
    <poly id="695841941" type="building" color="255,230,230" fill="1" layer="-1.00" shape="207.885551,230.170561 184.610891,226.285042 185.324927,221.472879 189.297549,218.860425 209.161136,222.311233 207.885551,230.170561"/>
    <poly id="695841944" type="building" color="255,230,230" fill="1" layer="-1.00" shape="196.337230,298.922019 185.235769,296.958133 173.120565,294.824873 174.999721,283.961911 176.498235,275.344777 190.730798,277.659965 190.273591,280.771671 199.353941,282.186106 196.337230,298.922019"/>
    <poly id="695841945" type="building" color="255,230,230" fill="1" layer="-1.00" shape="199.790948,279.096945 176.506256,275.222718 180.652128,250.519388 203.901356,254.150474 199.790948,279.096945"/>
    <poly id="695841946" type="building" color="255,230,230" fill="1" layer="-1.00" shape="203.901356,254.150474 180.652128,250.519388 184.564131,226.540819 207.848475,230.392908 203.901356,254.150474"/>
    <poly id="695841949" type="building" color="255,230,230" fill="1" layer="-1.00" shape="222.387676,283.128186 206.758319,280.562112 202.424413,279.856563 202.690924,278.122677 206.974121,278.873509 207.892699,272.871672 223.584120,275.447665 222.387676,283.128186"/>
    <poly id="695841951" type="building" color="255,230,230" fill="1" layer="-1.00" shape="212.891445,273.287684 206.354608,272.235574 208.980419,256.648507 215.422408,257.591573 226.188830,259.284704 223.668788,275.013855 212.891445,273.287684"/>
    <poly id="695841952" type="building" color="255,230,230" fill="1" layer="-1.00" shape="226.224867,259.006963 210.785816,256.692212 211.758972,250.301461 227.198237,252.627292 226.224867,259.006963"/>
    <poly id="695841953" type="building" color="255,230,230" fill="1" layer="-1.00" shape="227.226875,252.504847 211.787611,250.179015 212.680049,244.432569 228.115993,246.581143 227.226875,252.504847"/>
    <poly id="695841954" type="building" color="255,230,230" fill="1" layer="-1.00" shape="211.032753,222.586431 208.682134,238.002094 215.310927,239.008151 217.662383,223.636805 211.032753,222.586431"/>
    <poly id="695841955" type="building" color="255,230,230" fill="1" layer="-1.00" shape="217.662383,223.636805 215.310927,239.008151 223.459812,240.240592 225.824909,225.046314 217.662383,223.636805"/>
    <poly id="695841956" type="building" color="255,230,230" fill="1" layer="-1.00" shape="225.824909,225.046314 223.459812,240.240592 230.016445,241.248009 232.381548,226.053732 225.824909,225.046314"/>
    <poly id="695841961" type="tourism" color="207,245,201" fill="1" layer="-2.00" shape="261.278904,266.916198 287.486555,304.027824 277.430062,311.043337 278.667086,312.671439 307.665699,317.713133 309.924404,316.085958 270.602582,260.413141 261.278904,266.916198"/>
    <poly id="697557217" type="natural" color="140,196,107" fill="0" layer="-4.00" shape="274.372659,182.132584 272.700824,172.167447 267.420319,171.025246 261.075067,169.193733 259.662336,165.895455 259.701369,163.578462 260.043083,161.455277"/>
    <poly id="697557224" type="natural" color="140,196,107" fill="0" layer="-4.00" shape="315.642066,264.666339 284.603213,216.828680"/>
    <poly id="697558562" type="building" color="255,230,230" fill="1" layer="-1.00" shape="243.489874,248.719813 241.167163,263.425658 235.838557,297.094803 234.594934,305.008941 238.929870,305.769892 275.811839,312.181951 277.430062,311.043337 278.667086,312.671439 307.665699,317.713133 309.924404,316.085958 270.602582,260.413141 264.988132,252.461414 252.487934,234.753186 245.858521,233.713877 243.489874,248.719813"/>
    <poly id="895215318" type="historic" color="128,255,128" fill="1" layer="-1.00" shape="63.982366,119.163559 61.269019,137.223728 72.712664,139.280863 75.869283,121.212378 63.982366,119.163559"/>
    <poi id="11343102309" type="natural" color="140,196,107" layer="1.00" x="256.61" y="236.44"/>
    <poi id="11343102310" type="natural" color="140,196,107" layer="1.00" x="267.21" y="251.36"/>
    <poi id="11343102311" type="natural" color="140,196,107" layer="1.00" x="274.37" y="261.50"/>
    <poi id="11343102312" type="natural" color="140,196,107" layer="1.00" x="280.91" y="270.85"/>
    <poi id="11343738769" type="natural" color="140,196,107" layer="1.00" x="246.32" y="233.15"/>
    <poi id="11343738770" type="natural" color="140,196,107" layer="1.00" x="247.18" y="232.65"/>
    <poi id="11343738771" type="natural" color="140,196,107" layer="1.00" x="251.29" y="233.37"/>
    <poi id="11343738772" type="natural" color="140,196,107" layer="1.00" x="251.67" y="234.15"/>
    <poi id="11792843868" type="amenity" color="237,199,199" layer="4.00" x="198.92" y="152.34"/>
    <poi id="1272675029" type="amenity" color="237,199,199" layer="4.00" x="160.78" y="165.94"/>
    <poi id="1272678589" type="amenity" color="237,199,199" layer="4.00" x="190.77" y="240.17"/>
    <poi id="3914318560" type="shop" color="237,199,255" layer="4.00" x="83.10" y="200.87"/>
    <poi id="4059255379" type="shop" color="237,199,255" layer="4.00" x="219.37" y="191.73"/>
    <poi id="4106955392" type="amenity" color="237,199,199" layer="4.00" x="91.20" y="224.74"/>
    <poi id="4116494722" type="amenity" color="237,199,199" layer="4.00" x="200.71" y="141.05"/>
    <poi id="4116494723" type="amenity" color="237,199,199" layer="4.00" x="199.77" y="146.77"/>
    <poi id="4116494724" type="shop" color="237,199,255" layer="4.00" x="199.69" y="165.29"/>
    <poi id="4121311200" type="amenity" color="237,199,199" layer="4.00" x="158.66" y="178.90"/>
    <poi id="4221042492" type="shop" color="237,199,255" layer="4.00" x="184.44" y="235.36"/>
    <poi id="4272167890" type="shop" color="237,199,255" layer="4.00" x="195.14" y="225.48"/>
    <poi id="4275390200" type="amenity" color="237,199,199" layer="4.00" x="105.89" y="175.83"/>
    <poi id="4335706688" type="building" color="255,230,230" layer="4.00" x="192.92" y="150.30"/>
    <poi id="4709117590" type="amenity" color="237,199,199" layer="4.00" x="181.63" y="253.85"/>
    <poi id="4755897530" type="amenity" color="237,199,199" layer="4.00" x="159.82" y="172.02"/>
    <poi id="4864578789" type="shop" color="237,199,255" layer="4.00" x="178.84" y="270.09"/>
    <poi id="4864578790" type="shop" color="237,199,255" layer="4.00" x="179.64" y="264.71"/>
    <poi id="4864578791" type="shop" color="237,199,255" layer="4.00" x="184.91" y="232.10"/>
    <poi id="4864636776" type="shop" color="237,199,255" layer="4.00" x="146.55" y="259.25"/>
    <poi id="4864636777" type="shop" color="237,199,255" layer="4.00" x="147.54" y="252.28"/>
    <poi id="4864636778" type="shop" color="237,199,255" layer="4.00" x="149.48" y="240.73"/>
    <poi id="4864636779" type="shop" color="237,199,255" layer="4.00" x="151.05" y="231.70"/>
    <poi id="4864636780" type="shop" color="237,199,255" layer="4.00" x="151.97" y="226.10"/>
    <poi id="4864636781" type="amenity" color="237,199,199" layer="4.00" x="152.90" y="220.61"/>
    <poi id="4864636782" type="amenity" color="237,199,199" layer="4.00" x="153.68" y="215.31"/>
    <poi id="4864725977" type="shop" color="237,199,255" layer="4.00" x="153.93" y="214.29"/>
    <poi id="4864725982" type="shop" color="237,199,255" layer="4.00" x="161.70" y="159.13"/>
    <poi id="4894934522" type="amenity" color="237,199,199" layer="4.00" x="163.73" y="147.19"/>
    <poi id="5418333621" type="leisure" color="207,245,201" layer="3.00" x="166.47" y="137.71"/>
    <poi id="6464472591" type="shop" color="237,199,255" layer="4.00" x="164.33" y="141.92"/>
    <poi id="6705233691" type="building" color="255,230,230" layer="4.00" x="187.39" y="183.43"/>
    <poi id="7155206585" type="amenity" color="237,199,199" layer="4.00" x="151.73" y="223.65"/>
    <poi id="8789455386" type="shop" color="237,199,255" layer="4.00" x="180.83" y="259.08"/>
</additional>
