<?xml version="1.0" ?>
<configuration xmlns:xsi="http://www.w3.org/2001/XMLSchema-instance" xsi:noNamespaceSchemaLocation="http://sumo.dlr.de/xsd/sumoConfiguration.xsd">
   <input>
      <net-file value="./env/single_junction.net.xml"/>
      <route-files value="./env/random_traffic_flow.rou.xml"/>
      <additional-files value="./add/e2.add.xml"/>
   </input>
</configuration>