<?xml version="1.0" encoding="UTF-8"?>

<!-- generated on 2025-06-24 10:11:01 by Eclipse SUMO polyconvert Version 1.22.0
<polyconvertConfiguration xmlns:xsi="http://www.w3.org/2001/XMLSchema-instance" xsi:noNamespaceSchemaLocation="http://sumo.dlr.de/xsd/polyconvertConfiguration.xsd">

    <input>
        <net-file value="/home/china/桌面/tscvla/sim_envs/Beijing_Changjianglu/env/map.net.xml"/>
        <osm-files value="/home/china/桌面/tscvla/sim_envs/Beijing_Changjianglu/map.osm"/>
        <osm.merge-relations value="1"/>
        <type-file value="/home/china/桌面/TransSimHub/tshub/sumo_tools/./osm_build_type/poly.typ.xml"/>
    </input>

    <output>
        <output-file value="/home/china/桌面/tscvla/sim_envs/Beijing_Changjianglu/env/map.poly.xml"/>
    </output>

    <building_defaults>
        <discard value="true"/>
    </building_defaults>

</polyconvertConfiguration>
-->

<additional xmlns:xsi="http://www.w3.org/2001/XMLSchema-instance" xsi:noNamespaceSchemaLocation="http://sumo.dlr.de/xsd/additional_file.xsd">
    <location netOffset="-433820.17,-4444527.16" convBoundary="-493.21,-1124.87,1659.07,4364.83" origBoundary="116.216832,40.138453,116.242460,40.187772" projParameter="+proj=utm +zone=50 +ellps=WGS84 +datum=WGS84 +units=m +no_defs"/>

    <poly id="538878198" type="water" color="181,209,209" fill="1" layer="-4.00" shape="662.768643,640.952076 660.300207,669.667780 664.355559,698.315899 665.634010,721.038290 661.153087,768.164659 635.539082,1009.763093 610.975690,1247.567420 592.622757,1449.042198 582.841912,1512.443334 557.041899,1606.287374 491.661400,1835.766163 436.700370,2024.139303 447.858036,2027.283630 514.155030,1798.773205 570.107750,1609.426437 599.658217,1509.056232 608.400733,1451.613902 626.725898,1246.887014 654.001918,1008.526438 680.175517,768.532782 685.093634,624.297034 686.232061,585.580365 702.530014,527.950770 711.719188,480.539510 739.713501,434.852675 800.714599,326.075153 832.809059,266.799797 854.460893,215.407143 895.058983,147.444846 904.835180,125.426316 936.828840,70.070732 952.664744,52.362453 981.849450,30.787302 992.253737,23.293780 992.322081,11.449171 992.412745,-2.748894 949.071161,39.639179 929.375370,57.214237 891.241143,120.581742 878.285883,143.371440 839.235162,215.915997 782.706359,317.028595 719.003398,428.538114 695.676939,475.216961 679.648077,523.597669 671.933458,581.918926 662.768643,640.952076"/>
    <poly id="595596682" type="water" color="181,209,209" fill="0" layer="-4.00" shape="-435.605571,4364.831707 -431.584039,4216.439161 -427.951214,4124.384689 -438.510681,4069.031173 -448.949228,3993.607058 -487.470923,3855.913064 -493.209868,3775.729898 -485.512338,3742.038864 -435.558267,3597.359783 -218.554077,3118.755271 -203.540552,3074.377281 -176.155345,2989.185618 -155.307157,2969.232895 -126.722396,2952.753409 107.389674,2809.851355 235.900606,2722.146634 248.152571,2700.505080 248.228578,2676.017002 257.784721,2650.857955 326.175983,2419.718582 347.718697,2348.133496 586.025808,1522.117422 600.302748,1443.902762 634.158009,1125.618097 659.488438,834.614513 673.797964,699.888096 680.066575,582.769848 692.358463,519.902257 717.444678,445.279774 852.535225,207.442644 881.746137,156.428845 893.466161,132.639679 916.737625,90.180104 938.280187,56.615754 954.749949,42.276508 992.322081,11.449171 1040.716399,-21.913190 1096.985982,-65.710631 1099.082896,-67.526910 1137.856418,-208.478732 1190.319835,-523.178527 1192.055835,-531.329940 1194.092733,-549.085682 1198.003265,-581.787388 1205.289651,-657.886869 1216.871289,-770.543114 1220.981482,-824.681143 1227.614982,-861.757488 1243.678372,-924.767257 1260.862843,-983.246581 1276.270101,-1031.431767 1288.172108,-1057.219823 1297.488210,-1093.486553 1303.227401,-1107.744082 1309.240236,-1124.867820"/>
    <poly id="653509340" type="water" color="181,209,209" fill="0" layer="-4.00" shape="-45.849682,123.617745 -35.298246,138.910483 -14.772267,176.594160 231.410245,186.688539 715.197691,198.328325 792.572545,211.834499 827.006501,232.061535 852.535225,207.442644"/>
    <poly id="901858361" type="building" color="255,230,230" fill="1" layer="-1.00" shape="879.875991,193.397901 883.941697,186.791439 888.117935,178.185971 893.250610,167.885009 897.171543,160.291877 900.371859,154.081401 866.599202,152.263732 863.424944,158.529499 858.692888,166.884471 853.109605,177.278150 848.753871,185.807486 845.580025,192.117659 879.875991,193.397901"/>
    <poly id="901858364" type="forest" color="140,196,107" fill="1" layer="-3.00" shape="778.394359,150.228192 773.498340,143.543717 774.117119,118.551574 850.182886,121.435570 873.461021,90.631120 920.564241,47.932653 923.673136,51.857554 865.380724,127.542765 849.662486,151.932605 778.394359,150.228192"/>
    <poly id="901858396" type="natural" color="140,196,107" fill="1" layer="-4.00" shape="782.658043,180.339787 782.639339,178.175388 841.046737,180.079662 840.818324,182.235094 782.658043,180.339787"/>
    <poly id="901858397" type="natural" color="140,196,107" fill="1" layer="-4.00" shape="785.146181,160.726241 785.127574,158.572942 851.737094,161.361057 850.305714,163.293766 785.146181,160.726241"/>
    <poly id="901861102" type="forest" color="140,196,107" fill="1" layer="-3.00" shape="960.429692,290.152848 975.486948,272.085003 985.826393,264.025905 991.619861,240.443353 1004.009018,237.950079 1021.287666,245.371697 1020.227500,261.731572 968.262371,316.404174 910.338013,376.301292 905.859012,367.570681 920.170404,355.891829 944.810712,334.944005 957.436803,314.499412 960.429692,290.152848"/>
    <poly id="901861104" type="forest" color="140,196,107" fill="1" layer="-3.00" shape="917.719950,257.431032 917.658116,250.260768 943.700724,206.178922 951.780973,215.677736 979.529763,230.190921 983.239014,242.513604 978.918002,252.119294 970.621330,264.945030 961.113518,276.593481 951.916690,277.871578 943.850188,269.959989 936.572427,261.653098 917.719950,257.431032"/>
    <poly id="901861105" type="forest" color="140,196,107" fill="1" layer="-3.00" shape="776.193663,205.071640 776.910533,194.386946 829.362861,198.163045 821.476802,222.019108 813.750857,218.056424 807.608297,210.039557 776.193663,205.071640"/>
    <poly id="991377017" type="building" color="255,230,230" fill="1" layer="-1.00" shape="887.760303,213.743339 892.488668,213.846850 903.291422,214.075572 916.608129,214.438034 928.671064,214.611523 936.747503,214.774998 942.336899,205.080648 934.711677,204.891076 922.750552,204.672298 909.067009,204.246387 897.752626,203.955468 893.884698,203.866731 887.760303,213.743339"/>
</additional>
