<?xml version="1.0" encoding="UTF-8"?>

<!-- generated on 2026-02-27T16:29:53.349197+08:00 by Eclipse SUMO jtrrouter 1.25.0
<jtrrouterConfiguration xmlns:xsi="http://www.w3.org/2001/XMLSchema-instance" xsi:noNamespaceSchemaLocation="http://sumo.dlr.de/xsd/jtrrouterConfiguration.xsd">

    <input>
        <net-file value="/home/wmn/Coding_Project/TrafficAlpha/SingleTSC_TranSimHub/exp_junction/Beijing_Changjianglu/./networks/normal.net.xml"/>
        <route-files value="/home/wmn/Coding_Project/TrafficAlpha/SingleTSC_TranSimHub/exp_junction/Beijing_Changjianglu/./testflow.trip.xml"/>
        <turn-ratio-files value="/home/wmn/Coding_Project/TrafficAlpha/SingleTSC_TranSimHub/exp_junction/Beijing_Changjianglu/./testflow.turndefs.xml"/>
    </input>

    <output>
        <output-file value="/home/wmn/Coding_Project/TrafficAlpha/SingleTSC_TranSimHub/exp_junction/Beijing_Changjianglu/./routes/fluctuating_commuter.rou.xml"/>
    </output>

    <processing>
        <randomize-flows value="True"/>
        <accept-all-destinations value="True"/>
    </processing>

    <defaults>
        <departlane value="random"/>
    </defaults>

    <report>
        <no-warnings value="true"/>
    </report>

    <random_number>
        <seed value="777"/>
    </random_number>

</jtrrouterConfiguration>
-->

<routes xmlns:xsi="http://www.w3.org/2001/XMLSchema-instance" xsi:noNamespaceSchemaLocation="http://sumo.dlr.de/xsd/routes_file.xsd">
    <vType id="background" length="5.00" color="220,220,220" tau="1.0"/>
    <vehicle id="832511541#0.628__0__background.0" type="background" depart="3.58" departLane="random">
        <route edges="832511541#0.628 606446493#4"/>
    </vehicle>
    <vehicle id="832511541#0.628__0__background.1" type="background" depart="6.54" departLane="random">
        <route edges="832511541#0.628 606446493#4"/>
    </vehicle>
    <vehicle id="538625748.377__0__background.0" type="background" depart="10.88" departLane="random">
        <route edges="538625748.377 606446495#5"/>
    </vehicle>
    <vehicle id="832511541#0.628__0__background.2" type="background" depart="11.03" departLane="random">
        <route edges="832511541#0.628 991377015#1"/>
    </vehicle>
    <vehicle id="606446495#0.451__0__background.0" type="background" depart="15.93" departLane="random">
        <route edges="606446495#0.451 606446495#5"/>
    </vehicle>
    <vehicle id="832511541#0.628__0__background.3" type="background" depart="17.37" departLane="random">
        <route edges="832511541#0.628 991377015#1"/>
    </vehicle>
    <vehicle id="832511541#0.628__0__background.4" type="background" depart="25.90" departLane="random">
        <route edges="832511541#0.628 606446493#4"/>
    </vehicle>
    <vehicle id="538625748.377__0__background.1" type="background" depart="26.70" departLane="random">
        <route edges="538625748.377 606446493#4"/>
    </vehicle>
    <vehicle id="538625748.377__0__background.2" type="background" depart="28.79" departLane="random">
        <route edges="538625748.377 606446493#4"/>
    </vehicle>
    <vehicle id="606446495#0.451__0__background.1" type="background" depart="36.79" departLane="random">
        <route edges="606446495#0.451 991377015#1"/>
    </vehicle>
    <vehicle id="606446495#0.451__0__background.2" type="background" depart="40.54" departLane="random">
        <route edges="606446495#0.451 991377015#1"/>
    </vehicle>
    <vehicle id="832511541#0.628__0__background.5" type="background" depart="40.85" departLane="random">
        <route edges="832511541#0.628 606446493#4"/>
    </vehicle>
    <vehicle id="832511541#0.628__0__background.6" type="background" depart="44.46" departLane="random">
        <route edges="832511541#0.628 606446493#4"/>
    </vehicle>
    <vehicle id="606446495#0.451__0__background.3" type="background" depart="47.92" departLane="random">
        <route edges="606446495#0.451 991377015#1"/>
    </vehicle>
    <vehicle id="606446495#0.451__0__background.4" type="background" depart="52.13" departLane="random">
        <route edges="606446495#0.451 606446495#5"/>
    </vehicle>
    <vehicle id="538625748.377__0__background.3" type="background" depart="54.94" departLane="random">
        <route edges="538625748.377 606446493#4"/>
    </vehicle>
    <vehicle id="832511541#0.628__1__background.0" type="background" depart="60.84" departLane="random">
        <route edges="832511541#0.628 606446493#4"/>
    </vehicle>
    <vehicle id="832511541#0.628__1__background.1" type="background" depart="65.68" departLane="random">
        <route edges="832511541#0.628 606446493#4"/>
    </vehicle>
    <vehicle id="606446495#0.451__1__background.0" type="background" depart="66.80" departLane="random">
        <route edges="606446495#0.451 991377015#1"/>
    </vehicle>
    <vehicle id="538625748.377__1__background.0" type="background" depart="67.71" departLane="random">
        <route edges="538625748.377 606446493#4"/>
    </vehicle>
    <vehicle id="538625748.377__1__background.1" type="background" depart="70.82" departLane="random">
        <route edges="538625748.377 606446493#4"/>
    </vehicle>
    <vehicle id="606446495#0.451__1__background.1" type="background" depart="72.32" departLane="random">
        <route edges="606446495#0.451 606446495#5"/>
    </vehicle>
    <vehicle id="832511541#0.628__1__background.2" type="background" depart="75.68" departLane="random">
        <route edges="832511541#0.628 606446493#4"/>
    </vehicle>
    <vehicle id="832511541#0.628__1__background.3" type="background" depart="76.75" departLane="random">
        <route edges="832511541#0.628 991377015#1"/>
    </vehicle>
    <vehicle id="606446495#0.451__1__background.2" type="background" depart="79.28" departLane="random">
        <route edges="606446495#0.451 991377015#1"/>
    </vehicle>
    <vehicle id="606446495#0.451__1__background.3" type="background" depart="80.32" departLane="random">
        <route edges="606446495#0.451 606446495#5"/>
    </vehicle>
    <vehicle id="606446495#0.451__1__background.4" type="background" depart="86.95" departLane="random">
        <route edges="606446495#0.451 606446495#5"/>
    </vehicle>
    <vehicle id="832511541#0.628__1__background.4" type="background" depart="95.91" departLane="random">
        <route edges="832511541#0.628 606446493#4"/>
    </vehicle>
    <vehicle id="538625748.377__1__background.2" type="background" depart="101.30" departLane="random">
        <route edges="538625748.377 606446493#4"/>
    </vehicle>
    <vehicle id="832511541#0.628__1__background.5" type="background" depart="106.02" departLane="random">
        <route edges="832511541#0.628 606446493#4"/>
    </vehicle>
    <vehicle id="538625748.377__1__background.3" type="background" depart="108.23" departLane="random">
        <route edges="538625748.377 606446495#5"/>
    </vehicle>
    <vehicle id="832511541#0.628__1__background.6" type="background" depart="116.15" departLane="random">
        <route edges="832511541#0.628 606446493#4"/>
    </vehicle>
    <vehicle id="606446495#0.451__2__background.0" type="background" depart="120.03" departLane="random">
        <route edges="606446495#0.451 991377015#1"/>
    </vehicle>
    <vehicle id="832511541#0.628__2__background.0" type="background" depart="120.09" departLane="random">
        <route edges="832511541#0.628 606446493#4"/>
    </vehicle>
    <vehicle id="832511541#0.628__2__background.1" type="background" depart="120.19" departLane="random">
        <route edges="832511541#0.628 606446493#4"/>
    </vehicle>
    <vehicle id="538625748.377__2__background.0" type="background" depart="121.54" departLane="random">
        <route edges="538625748.377 606446495#5"/>
    </vehicle>
    <vehicle id="832511541#0.628__2__background.2" type="background" depart="121.72" departLane="random">
        <route edges="832511541#0.628 606446493#4"/>
    </vehicle>
    <vehicle id="538625748.377__2__background.1" type="background" depart="123.43" departLane="random">
        <route edges="538625748.377 606446493#4"/>
    </vehicle>
    <vehicle id="538625748.377__2__background.2" type="background" depart="123.47" departLane="random">
        <route edges="538625748.377 606446495#5"/>
    </vehicle>
    <vehicle id="606446495#0.451__2__background.1" type="background" depart="124.16" departLane="random">
        <route edges="606446495#0.451 606446495#5"/>
    </vehicle>
    <vehicle id="606446495#0.451__2__background.2" type="background" depart="124.54" departLane="random">
        <route edges="606446495#0.451 606446495#5"/>
    </vehicle>
    <vehicle id="832511541#0.628__2__background.3" type="background" depart="124.84" departLane="random">
        <route edges="832511541#0.628 991377015#1"/>
    </vehicle>
    <vehicle id="606446495#0.451__2__background.3" type="background" depart="125.99" departLane="random">
        <route edges="606446495#0.451 606446495#5"/>
    </vehicle>
    <vehicle id="606446495#0.451__2__background.4" type="background" depart="127.95" departLane="random">
        <route edges="606446495#0.451 606446495#5"/>
    </vehicle>
    <vehicle id="606446495#0.451__2__background.5" type="background" depart="129.31" departLane="random">
        <route edges="606446495#0.451 991377015#1"/>
    </vehicle>
    <vehicle id="538625748.377__2__background.3" type="background" depart="130.17" departLane="random">
        <route edges="538625748.377 606446495#5"/>
    </vehicle>
    <vehicle id="538625748.377__2__background.4" type="background" depart="131.26" departLane="random">
        <route edges="538625748.377 606446493#4"/>
    </vehicle>
    <vehicle id="538625748.377__2__background.5" type="background" depart="132.29" departLane="random">
        <route edges="538625748.377 606446495#5"/>
    </vehicle>
    <vehicle id="538625748.377__2__background.6" type="background" depart="132.41" departLane="random">
        <route edges="538625748.377 606446495#5"/>
    </vehicle>
    <vehicle id="538625748.377__2__background.7" type="background" depart="133.67" departLane="random">
        <route edges="538625748.377 606446495#5"/>
    </vehicle>
    <vehicle id="832511541#0.628__2__background.4" type="background" depart="134.01" departLane="random">
        <route edges="832511541#0.628 606446493#4"/>
    </vehicle>
    <vehicle id="538625748.377__2__background.8" type="background" depart="135.08" departLane="random">
        <route edges="538625748.377 606446493#4"/>
    </vehicle>
    <vehicle id="538625748.377__2__background.9" type="background" depart="135.59" departLane="random">
        <route edges="538625748.377 606446493#4"/>
    </vehicle>
    <vehicle id="538625748.377__2__background.10" type="background" depart="136.46" departLane="random">
        <route edges="538625748.377 606446495#5"/>
    </vehicle>
    <vehicle id="538625748.377__2__background.11" type="background" depart="136.73" departLane="random">
        <route edges="538625748.377 606446495#5"/>
    </vehicle>
    <vehicle id="538625748.377__2__background.12" type="background" depart="138.84" departLane="random">
        <route edges="538625748.377 606446493#4"/>
    </vehicle>
    <vehicle id="538625748.377__2__background.13" type="background" depart="140.50" departLane="random">
        <route edges="538625748.377 606446493#4"/>
    </vehicle>
    <vehicle id="832511541#0.628__2__background.5" type="background" depart="143.16" departLane="random">
        <route edges="832511541#0.628 606446493#4"/>
    </vehicle>
    <vehicle id="606446495#0.451__2__background.6" type="background" depart="143.35" departLane="random">
        <route edges="606446495#0.451 606446495#5"/>
    </vehicle>
    <vehicle id="606446495#0.451__2__background.7" type="background" depart="145.22" departLane="random">
        <route edges="606446495#0.451 991377015#1"/>
    </vehicle>
    <vehicle id="832511541#0.628__2__background.6" type="background" depart="145.80" departLane="random">
        <route edges="832511541#0.628 606446493#4"/>
    </vehicle>
    <vehicle id="832511541#0.628__2__background.7" type="background" depart="145.86" departLane="random">
        <route edges="832511541#0.628 606446493#4"/>
    </vehicle>
    <vehicle id="606446495#0.451__2__background.8" type="background" depart="146.23" departLane="random">
        <route edges="606446495#0.451 991377015#1"/>
    </vehicle>
    <vehicle id="606446495#0.451__2__background.9" type="background" depart="146.40" departLane="random">
        <route edges="606446495#0.451 606446495#5"/>
    </vehicle>
    <vehicle id="832511541#0.628__2__background.8" type="background" depart="147.35" departLane="random">
        <route edges="832511541#0.628 606446493#4"/>
    </vehicle>
    <vehicle id="606446495#0.451__2__background.10" type="background" depart="148.29" departLane="random">
        <route edges="606446495#0.451 606446495#5"/>
    </vehicle>
    <vehicle id="538625748.377__2__background.14" type="background" depart="149.83" departLane="random">
        <route edges="538625748.377 606446493#4"/>
    </vehicle>
    <vehicle id="606446495#0.451__2__background.11" type="background" depart="150.89" departLane="random">
        <route edges="606446495#0.451 991377015#1"/>
    </vehicle>
    <vehicle id="606446495#0.451__2__background.12" type="background" depart="151.08" departLane="random">
        <route edges="606446495#0.451 606446495#5"/>
    </vehicle>
    <vehicle id="832511541#0.628__2__background.9" type="background" depart="151.85" departLane="random">
        <route edges="832511541#0.628 606446493#4"/>
    </vehicle>
    <vehicle id="606446495#0.451__2__background.13" type="background" depart="153.66" departLane="random">
        <route edges="606446495#0.451 991377015#1"/>
    </vehicle>
    <vehicle id="832511541#0.628__2__background.10" type="background" depart="155.70" departLane="random">
        <route edges="832511541#0.628 606446493#4"/>
    </vehicle>
    <vehicle id="538625748.377__2__background.15" type="background" depart="157.85" departLane="random">
        <route edges="538625748.377 606446495#5"/>
    </vehicle>
    <vehicle id="606446495#0.451__2__background.14" type="background" depart="159.15" departLane="random">
        <route edges="606446495#0.451 991377015#1"/>
    </vehicle>
    <vehicle id="832511541#0.628__2__background.11" type="background" depart="159.52" departLane="random">
        <route edges="832511541#0.628 606446493#4"/>
    </vehicle>
    <vehicle id="832511541#0.628__2__background.12" type="background" depart="162.11" departLane="random">
        <route edges="832511541#0.628 991377015#1"/>
    </vehicle>
    <vehicle id="538625748.377__2__background.16" type="background" depart="162.87" departLane="random">
        <route edges="538625748.377 606446495#5"/>
    </vehicle>
    <vehicle id="606446495#0.451__2__background.15" type="background" depart="163.19" departLane="random">
        <route edges="606446495#0.451 606446495#5"/>
    </vehicle>
    <vehicle id="538625748.377__2__background.17" type="background" depart="163.28" departLane="random">
        <route edges="538625748.377 606446495#5"/>
    </vehicle>
    <vehicle id="832511541#0.628__2__background.13" type="background" depart="164.98" departLane="random">
        <route edges="832511541#0.628 991377015#1"/>
    </vehicle>
    <vehicle id="538625748.377__2__background.18" type="background" depart="165.90" departLane="random">
        <route edges="538625748.377 606446493#4"/>
    </vehicle>
    <vehicle id="606446495#0.451__2__background.16" type="background" depart="166.02" departLane="random">
        <route edges="606446495#0.451 991377015#1"/>
    </vehicle>
    <vehicle id="832511541#0.628__2__background.14" type="background" depart="167.92" departLane="random">
        <route edges="832511541#0.628 991377015#1"/>
    </vehicle>
    <vehicle id="606446495#0.451__2__background.17" type="background" depart="168.14" departLane="random">
        <route edges="606446495#0.451 606446495#5"/>
    </vehicle>
    <vehicle id="606446495#0.451__2__background.18" type="background" depart="169.14" departLane="random">
        <route edges="606446495#0.451 606446495#5"/>
    </vehicle>
    <vehicle id="832511541#0.628__2__background.15" type="background" depart="170.44" departLane="random">
        <route edges="832511541#0.628 606446493#4"/>
    </vehicle>
    <vehicle id="538625748.377__2__background.19" type="background" depart="170.49" departLane="random">
        <route edges="538625748.377 606446493#4"/>
    </vehicle>
    <vehicle id="538625748.377__2__background.20" type="background" depart="171.42" departLane="random">
        <route edges="538625748.377 606446495#5"/>
    </vehicle>
    <vehicle id="606446495#0.451__2__background.19" type="background" depart="171.52" departLane="random">
        <route edges="606446495#0.451 606446495#5"/>
    </vehicle>
    <vehicle id="832511541#0.628__2__background.16" type="background" depart="172.24" departLane="random">
        <route edges="832511541#0.628 991377015#1"/>
    </vehicle>
    <vehicle id="606446495#0.451__2__background.20" type="background" depart="173.45" departLane="random">
        <route edges="606446495#0.451 606446495#5"/>
    </vehicle>
    <vehicle id="538625748.377__2__background.21" type="background" depart="173.47" departLane="random">
        <route edges="538625748.377 606446495#5"/>
    </vehicle>
    <vehicle id="606446495#0.451__2__background.21" type="background" depart="174.52" departLane="random">
        <route edges="606446495#0.451 991377015#1"/>
    </vehicle>
    <vehicle id="606446495#0.451__2__background.22" type="background" depart="177.89" departLane="random">
        <route edges="606446495#0.451 606446495#5"/>
    </vehicle>
    <vehicle id="832511541#0.628__2__background.17" type="background" depart="178.72" departLane="random">
        <route edges="832511541#0.628 991377015#1"/>
    </vehicle>
    <vehicle id="606446495#0.451__2__background.23" type="background" depart="179.78" departLane="random">
        <route edges="606446495#0.451 991377015#1"/>
    </vehicle>
    <vehicle id="538625748.377__3__background.0" type="background" depart="180.02" departLane="random">
        <route edges="538625748.377 606446493#4"/>
    </vehicle>
    <vehicle id="538625748.377__3__background.1" type="background" depart="180.29" departLane="random">
        <route edges="538625748.377 606446493#4"/>
    </vehicle>
    <vehicle id="832511541#0.628__3__background.0" type="background" depart="181.00" departLane="random">
        <route edges="832511541#0.628 606446493#4"/>
    </vehicle>
    <vehicle id="538625748.377__3__background.2" type="background" depart="181.48" departLane="random">
        <route edges="538625748.377 606446493#4"/>
    </vehicle>
    <vehicle id="538625748.377__3__background.3" type="background" depart="182.31" departLane="random">
        <route edges="538625748.377 606446495#5"/>
    </vehicle>
    <vehicle id="832511541#0.628__3__background.1" type="background" depart="185.41" departLane="random">
        <route edges="832511541#0.628 991377015#1"/>
    </vehicle>
    <vehicle id="606446495#0.451__3__background.0" type="background" depart="188.46" departLane="random">
        <route edges="606446495#0.451 606446495#5"/>
    </vehicle>
    <vehicle id="606446495#0.451__3__background.1" type="background" depart="188.53" departLane="random">
        <route edges="606446495#0.451 606446495#5"/>
    </vehicle>
    <vehicle id="832511541#0.628__3__background.2" type="background" depart="189.59" departLane="random">
        <route edges="832511541#0.628 991377015#1"/>
    </vehicle>
    <vehicle id="538625748.377__3__background.4" type="background" depart="189.59" departLane="random">
        <route edges="538625748.377 606446493#4"/>
    </vehicle>
    <vehicle id="832511541#0.628__3__background.3" type="background" depart="193.75" departLane="random">
        <route edges="832511541#0.628 606446493#4"/>
    </vehicle>
    <vehicle id="606446495#0.451__3__background.2" type="background" depart="194.15" departLane="random">
        <route edges="606446495#0.451 606446495#5"/>
    </vehicle>
    <vehicle id="606446495#0.451__3__background.3" type="background" depart="194.36" departLane="random">
        <route edges="606446495#0.451 606446495#5"/>
    </vehicle>
    <vehicle id="606446495#0.451__3__background.4" type="background" depart="196.26" departLane="random">
        <route edges="606446495#0.451 606446495#5"/>
    </vehicle>
    <vehicle id="832511541#0.628__3__background.4" type="background" depart="196.61" departLane="random">
        <route edges="832511541#0.628 606446493#4"/>
    </vehicle>
    <vehicle id="832511541#0.628__3__background.5" type="background" depart="197.09" departLane="random">
        <route edges="832511541#0.628 606446493#4"/>
    </vehicle>
    <vehicle id="538625748.377__3__background.5" type="background" depart="197.86" departLane="random">
        <route edges="538625748.377 606446493#4"/>
    </vehicle>
    <vehicle id="538625748.377__3__background.6" type="background" depart="199.11" departLane="random">
        <route edges="538625748.377 606446493#4"/>
    </vehicle>
    <vehicle id="538625748.377__3__background.7" type="background" depart="199.40" departLane="random">
        <route edges="538625748.377 606446495#5"/>
    </vehicle>
    <vehicle id="606446495#0.451__3__background.5" type="background" depart="199.56" departLane="random">
        <route edges="606446495#0.451 991377015#1"/>
    </vehicle>
    <vehicle id="538625748.377__3__background.8" type="background" depart="203.38" departLane="random">
        <route edges="538625748.377 606446493#4"/>
    </vehicle>
    <vehicle id="538625748.377__3__background.9" type="background" depart="204.00" departLane="random">
        <route edges="538625748.377 606446493#4"/>
    </vehicle>
    <vehicle id="606446495#0.451__3__background.6" type="background" depart="204.69" departLane="random">
        <route edges="606446495#0.451 606446495#5"/>
    </vehicle>
    <vehicle id="832511541#0.628__3__background.6" type="background" depart="205.18" departLane="random">
        <route edges="832511541#0.628 606446493#4"/>
    </vehicle>
    <vehicle id="538625748.377__3__background.10" type="background" depart="205.38" departLane="random">
        <route edges="538625748.377 606446493#4"/>
    </vehicle>
    <vehicle id="538625748.377__3__background.11" type="background" depart="205.85" departLane="random">
        <route edges="538625748.377 606446493#4"/>
    </vehicle>
    <vehicle id="606446495#0.451__3__background.7" type="background" depart="208.54" departLane="random">
        <route edges="606446495#0.451 606446495#5"/>
    </vehicle>
    <vehicle id="832511541#0.628__3__background.7" type="background" depart="210.15" departLane="random">
        <route edges="832511541#0.628 606446493#4"/>
    </vehicle>
    <vehicle id="606446495#0.451__3__background.8" type="background" depart="210.51" departLane="random">
        <route edges="606446495#0.451 606446495#5"/>
    </vehicle>
    <vehicle id="538625748.377__3__background.12" type="background" depart="211.41" departLane="random">
        <route edges="538625748.377 606446493#4"/>
    </vehicle>
    <vehicle id="606446495#0.451__3__background.9" type="background" depart="211.76" departLane="random">
        <route edges="606446495#0.451 991377015#1"/>
    </vehicle>
    <vehicle id="606446495#0.451__3__background.10" type="background" depart="211.94" departLane="random">
        <route edges="606446495#0.451 606446495#5"/>
    </vehicle>
    <vehicle id="606446495#0.451__3__background.11" type="background" depart="212.29" departLane="random">
        <route edges="606446495#0.451 606446495#5"/>
    </vehicle>
    <vehicle id="832511541#0.628__3__background.8" type="background" depart="213.16" departLane="random">
        <route edges="832511541#0.628 606446493#4"/>
    </vehicle>
    <vehicle id="538625748.377__3__background.13" type="background" depart="213.35" departLane="random">
        <route edges="538625748.377 606446493#4"/>
    </vehicle>
    <vehicle id="538625748.377__3__background.14" type="background" depart="213.66" departLane="random">
        <route edges="538625748.377 606446493#4"/>
    </vehicle>
    <vehicle id="538625748.377__3__background.15" type="background" depart="214.35" departLane="random">
        <route edges="538625748.377 606446493#4"/>
    </vehicle>
    <vehicle id="538625748.377__3__background.16" type="background" depart="215.15" departLane="random">
        <route edges="538625748.377 606446495#5"/>
    </vehicle>
    <vehicle id="606446495#0.451__3__background.12" type="background" depart="217.85" departLane="random">
        <route edges="606446495#0.451 991377015#1"/>
    </vehicle>
    <vehicle id="832511541#0.628__3__background.9" type="background" depart="219.77" departLane="random">
        <route edges="832511541#0.628 991377015#1"/>
    </vehicle>
    <vehicle id="606446495#0.451__3__background.13" type="background" depart="219.82" departLane="random">
        <route edges="606446495#0.451 606446495#5"/>
    </vehicle>
    <vehicle id="832511541#0.628__3__background.10" type="background" depart="220.90" departLane="random">
        <route edges="832511541#0.628 991377015#1"/>
    </vehicle>
    <vehicle id="606446495#0.451__3__background.14" type="background" depart="222.53" departLane="random">
        <route edges="606446495#0.451 606446495#5"/>
    </vehicle>
    <vehicle id="538625748.377__3__background.17" type="background" depart="222.62" departLane="random">
        <route edges="538625748.377 606446495#5"/>
    </vehicle>
    <vehicle id="606446495#0.451__3__background.15" type="background" depart="223.32" departLane="random">
        <route edges="606446495#0.451 991377015#1"/>
    </vehicle>
    <vehicle id="538625748.377__3__background.18" type="background" depart="223.50" departLane="random">
        <route edges="538625748.377 606446495#5"/>
    </vehicle>
    <vehicle id="606446495#0.451__3__background.16" type="background" depart="223.99" departLane="random">
        <route edges="606446495#0.451 606446495#5"/>
    </vehicle>
    <vehicle id="606446495#0.451__3__background.17" type="background" depart="224.08" departLane="random">
        <route edges="606446495#0.451 606446495#5"/>
    </vehicle>
    <vehicle id="538625748.377__3__background.19" type="background" depart="224.42" departLane="random">
        <route edges="538625748.377 606446493#4"/>
    </vehicle>
    <vehicle id="606446495#0.451__3__background.18" type="background" depart="225.08" departLane="random">
        <route edges="606446495#0.451 991377015#1"/>
    </vehicle>
    <vehicle id="606446495#0.451__3__background.19" type="background" depart="225.09" departLane="random">
        <route edges="606446495#0.451 991377015#1"/>
    </vehicle>
    <vehicle id="832511541#0.628__3__background.11" type="background" depart="225.73" departLane="random">
        <route edges="832511541#0.628 606446493#4"/>
    </vehicle>
    <vehicle id="606446495#0.451__3__background.20" type="background" depart="227.20" departLane="random">
        <route edges="606446495#0.451 606446495#5"/>
    </vehicle>
    <vehicle id="538625748.377__3__background.20" type="background" depart="228.77" departLane="random">
        <route edges="538625748.377 606446493#4"/>
    </vehicle>
    <vehicle id="606446495#0.451__3__background.21" type="background" depart="229.49" departLane="random">
        <route edges="606446495#0.451 991377015#1"/>
    </vehicle>
    <vehicle id="832511541#0.628__3__background.12" type="background" depart="230.83" departLane="random">
        <route edges="832511541#0.628 606446493#4"/>
    </vehicle>
    <vehicle id="832511541#0.628__3__background.13" type="background" depart="231.40" departLane="random">
        <route edges="832511541#0.628 606446493#4"/>
    </vehicle>
    <vehicle id="832511541#0.628__3__background.14" type="background" depart="231.75" departLane="random">
        <route edges="832511541#0.628 606446493#4"/>
    </vehicle>
    <vehicle id="832511541#0.628__3__background.15" type="background" depart="232.84" departLane="random">
        <route edges="832511541#0.628 606446493#4"/>
    </vehicle>
    <vehicle id="606446495#0.451__3__background.22" type="background" depart="233.82" departLane="random">
        <route edges="606446495#0.451 991377015#1"/>
    </vehicle>
    <vehicle id="538625748.377__3__background.21" type="background" depart="233.90" departLane="random">
        <route edges="538625748.377 606446493#4"/>
    </vehicle>
    <vehicle id="832511541#0.628__3__background.16" type="background" depart="233.95" departLane="random">
        <route edges="832511541#0.628 606446493#4"/>
    </vehicle>
    <vehicle id="606446495#0.451__3__background.23" type="background" depart="237.22" departLane="random">
        <route edges="606446495#0.451 606446495#5"/>
    </vehicle>
    <vehicle id="832511541#0.628__3__background.17" type="background" depart="237.52" departLane="random">
        <route edges="832511541#0.628 991377015#1"/>
    </vehicle>
    <vehicle id="832511541#0.628__4__background.0" type="background" depart="240.93" departLane="random">
        <route edges="832511541#0.628 606446493#4"/>
    </vehicle>
    <vehicle id="832511541#0.628__4__background.1" type="background" depart="241.02" departLane="random">
        <route edges="832511541#0.628 606446493#4"/>
    </vehicle>
    <vehicle id="538625748.377__4__background.0" type="background" depart="241.71" departLane="random">
        <route edges="538625748.377 606446495#5"/>
    </vehicle>
    <vehicle id="606446495#0.451__4__background.0" type="background" depart="243.60" departLane="random">
        <route edges="606446495#0.451 606446495#5"/>
    </vehicle>
    <vehicle id="832511541#0.628__4__background.2" type="background" depart="244.61" departLane="random">