<?xml version="1.0" encoding="UTF-8"?>

<!-- generated on 2026-02-27T16:29:53.418993+08:00 by Eclipse SUMO jtrrouter 1.25.0
<jtrrouterConfiguration xmlns:xsi="http://www.w3.org/2001/XMLSchema-instance" xsi:noNamespaceSchemaLocation="http://sumo.dlr.de/xsd/jtrrouterConfiguration.xsd">

    <input>
        <net-file value="/home/wmn/Coding_Project/TrafficAlpha/SingleTSC_TranSimHub/exp_junction/Beijing_Changjianglu/./networks/normal.net.xml"/>
        <route-files value="/home/wmn/Coding_Project/TrafficAlpha/SingleTSC_TranSimHub/exp_junction/Beijing_Changjianglu/./testflow.trip.xml"/>
        <turn-ratio-files value="/home/wmn/Coding_Project/TrafficAlpha/SingleTSC_TranSimHub/exp_junction/Beijing_Changjianglu/./testflow.turndefs.xml"/>
    </input>

    <output>
        <output-file value="/home/wmn/Coding_Project/TrafficAlpha/SingleTSC_TranSimHub/exp_junction/Beijing_Changjianglu/./routes/high_density.rou.xml"/>
    </output>

    <processing>
        <randomize-flows value="True"/>
        <accept-all-destinations value="True"/>
    </processing>

    <defaults>
        <departlane value="random"/>
    </defaults>

    <report>
        <no-warnings value="true"/>
    </report>

    <random_number>
        <seed value="777"/>
    </random_number>

</jtrrouterConfiguration>
-->

<routes xmlns:xsi="http://www.w3.org/2001/XMLSchema-instance" xsi:noNamespaceSchemaLocation="http://sumo.dlr.de/xsd/routes_file.xsd">
    <vType id="background" length="5.00" color="220,220,220" tau="1.0"/>
    <vehicle id="832511541#0.628__0__background.0" type="background" depart="0.03" departLane="random">
        <route edges="832511541#0.628 606446493#4"/>
    </vehicle>
    <vehicle id="538625748.377__0__background.0" type="background" depart="0.84" departLane="random">
        <route edges="538625748.377 606446495#5"/>
    </vehicle>
    <vehicle id="606446495#0.451__0__background.0" type="background" depart="3.58" departLane="random">
        <route edges="606446495#0.451 606446495#5"/>
    </vehicle>
    <vehicle id="538625748.377__0__background.1" type="background" depart="4.16" departLane="random">
        <route edges="538625748.377 606446495#5"/>
    </vehicle>
    <vehicle id="832511541#0.628__0__background.1" type="background" depart="4.54" departLane="random">
        <route edges="832511541#0.628 991377015#1"/>
    </vehicle>
    <vehicle id="538625748.377__0__background.2" type="background" depart="5.68" departLane="random">
        <route edges="538625748.377 606446493#4"/>
    </vehicle>
    <vehicle id="832511541#0.628__0__background.2" type="background" depart="5.99" departLane="random">
        <route edges="832511541#0.628 991377015#1"/>
    </vehicle>
    <vehicle id="606446495#0.451__0__background.1" type="background" depart="6.54" departLane="random">
        <route edges="606446495#0.451 991377015#1"/>
    </vehicle>
    <vehicle id="606446495#0.451__0__background.2" type="background" depart="6.80" departLane="random">
        <route edges="606446495#0.451 606446495#5"/>
    </vehicle>
    <vehicle id="538625748.377__0__background.3" type="background" depart="7.71" departLane="random">
        <route edges="538625748.377 606446495#5"/>
    </vehicle>
    <vehicle id="538625748.377__0__background.4" type="background" depart="7.95" departLane="random">
        <route edges="538625748.377 606446495#5"/>
    </vehicle>
    <vehicle id="832511541#0.628__0__background.3" type="background" depart="9.31" departLane="random">
        <route edges="832511541#0.628 606446493#4"/>
    </vehicle>
    <vehicle id="538625748.377__0__background.5" type="background" depart="10.82" departLane="random">
        <route edges="538625748.377 606446495#5"/>
    </vehicle>
    <vehicle id="606446495#0.451__0__background.3" type="background" depart="10.88" departLane="random">
        <route edges="606446495#0.451 991377015#1"/>
    </vehicle>
    <vehicle id="606446495#0.451__0__background.4" type="background" depart="11.03" departLane="random">
        <route edges="606446495#0.451 606446495#5"/>
    </vehicle>
    <vehicle id="832511541#0.628__0__background.4" type="background" depart="11.26" departLane="random">
        <route edges="832511541#0.628 606446493#4"/>
    </vehicle>
    <vehicle id="606446495#0.451__0__background.5" type="background" depart="12.32" departLane="random">
        <route edges="606446495#0.451 606446495#5"/>
    </vehicle>
    <vehicle id="832511541#0.628__0__background.5" type="background" depart="15.08" departLane="random">
        <route edges="832511541#0.628 606446493#4"/>
    </vehicle>
    <vehicle id="538625748.377__0__background.6" type="background" depart="15.68" departLane="random">
        <route edges="538625748.377 606446495#5"/>
    </vehicle>
    <vehicle id="606446495#0.451__0__background.6" type="background" depart="15.93" departLane="random">
        <route edges="606446495#0.451 606446495#5"/>
    </vehicle>
    <vehicle id="538625748.377__0__background.7" type="background" depart="16.75" departLane="random">
        <route edges="538625748.377 606446495#5"/>
    </vehicle>
    <vehicle id="606446495#0.451__0__background.7" type="background" depart="17.37" departLane="random">
        <route edges="606446495#0.451 606446495#5"/>
    </vehicle>
    <vehicle id="538625748.377__0__background.8" type="background" depart="19.28" departLane="random">
        <route edges="538625748.377 606446495#5"/>
    </vehicle>
    <vehicle id="606446495#0.451__0__background.8" type="background" depart="20.32" departLane="random">
        <route edges="606446495#0.451 991377015#1"/>
    </vehicle>
    <vehicle id="538625748.377__0__background.9" type="background" depart="23.35" departLane="random">
        <route edges="538625748.377 606446493#4"/>
    </vehicle>
    <vehicle id="832511541#0.628__0__background.6" type="background" depart="25.22" departLane="random">
        <route edges="832511541#0.628 991377015#1"/>
    </vehicle>
    <vehicle id="606446495#0.451__0__background.9" type="background" depart="25.90" departLane="random">
        <route edges="606446495#0.451 991377015#1"/>
    </vehicle>
    <vehicle id="832511541#0.628__0__background.7" type="background" depart="26.23" departLane="random">
        <route edges="832511541#0.628 606446493#4"/>
    </vehicle>
    <vehicle id="832511541#0.628__0__background.8" type="background" depart="26.40" departLane="random">
        <route edges="832511541#0.628 606446493#4"/>
    </vehicle>
    <vehicle id="606446495#0.451__0__background.10" type="background" depart="26.70" departLane="random">
        <route edges="606446495#0.451 606446495#5"/>
    </vehicle>
    <vehicle id="606446495#0.451__0__background.11" type="background" depart="26.95" departLane="random">
        <route edges="606446495#0.451 606446495#5"/>
    </vehicle>
    <vehicle id="832511541#0.628__0__background.9" type="background" depart="28.29" departLane="random">
        <route edges="832511541#0.628 991377015#1"/>
    </vehicle>
    <vehicle id="606446495#0.451__0__background.12" type="background" depart="28.79" departLane="random">
        <route edges="606446495#0.451 991377015#1"/>
    </vehicle>
    <vehicle id="832511541#0.628__0__background.10" type="background" depart="30.89" departLane="random">
        <route edges="832511541#0.628 606446493#4"/>
    </vehicle>
    <vehicle id="832511541#0.628__0__background.11" type="background" depart="31.08" departLane="random">
        <route edges="832511541#0.628 606446493#4"/>
    </vehicle>
    <vehicle id="832511541#0.628__0__background.12" type="background" depart="33.66" departLane="random">
        <route edges="832511541#0.628 991377015#1"/>
    </vehicle>
    <vehicle id="538625748.377__0__background.10" type="background" depart="35.91" departLane="random">
        <route edges="538625748.377 606446493#4"/>
    </vehicle>
    <vehicle id="606446495#0.451__0__background.13" type="background" depart="36.79" departLane="random">
        <route edges="606446495#0.451 606446495#5"/>
    </vehicle>
    <vehicle id="832511541#0.628__0__background.13" type="background" depart="39.15" departLane="random">
        <route edges="832511541#0.628 606446493#4"/>
    </vehicle>
    <vehicle id="606446495#0.451__0__background.14" type="background" depart="40.54" departLane="random">
        <route edges="606446495#0.451 606446495#5"/>
    </vehicle>
    <vehicle id="606446495#0.451__0__background.15" type="background" depart="40.85" departLane="random">
        <route edges="606446495#0.451 606446495#5"/>
    </vehicle>
    <vehicle id="538625748.377__0__background.11" type="background" depart="41.30" departLane="random">
        <route edges="538625748.377 606446493#4"/>
    </vehicle>
    <vehicle id="832511541#0.628__0__background.14" type="background" depart="43.19" departLane="random">
        <route edges="832511541#0.628 606446493#4"/>
    </vehicle>
    <vehicle id="606446495#0.451__0__background.16" type="background" depart="44.46" departLane="random">
        <route edges="606446495#0.451 606446495#5"/>
    </vehicle>
    <vehicle id="538625748.377__0__background.12" type="background" depart="46.02" departLane="random">
        <route edges="538625748.377 606446493#4"/>
    </vehicle>
    <vehicle id="538625748.377__0__background.13" type="background" depart="46.02" departLane="random">
        <route edges="538625748.377 606446495#5"/>
    </vehicle>
    <vehicle id="606446495#0.451__0__background.17" type="background" depart="47.92" departLane="random">
        <route edges="606446495#0.451 991377015#1"/>
    </vehicle>
    <vehicle id="832511541#0.628__0__background.15" type="background" depart="48.14" departLane="random">
        <route edges="832511541#0.628 606446493#4"/>
    </vehicle>
    <vehicle id="538625748.377__0__background.14" type="background" depart="48.23" departLane="random">
        <route edges="538625748.377 606446493#4"/>
    </vehicle>
    <vehicle id="832511541#0.628__0__background.16" type="background" depart="49.14" departLane="random">
        <route edges="832511541#0.628 606446493#4"/>
    </vehicle>
    <vehicle id="538625748.377__0__background.15" type="background" depart="51.52" departLane="random">
        <route edges="538625748.377 606446495#5"/>
    </vehicle>
    <vehicle id="606446495#0.451__0__background.18" type="background" depart="52.13" departLane="random">
        <route edges="606446495#0.451 606446495#5"/>
    </vehicle>
    <vehicle id="538625748.377__0__background.16" type="background" depart="53.45" departLane="random">
        <route edges="538625748.377 606446493#4"/>
    </vehicle>
    <vehicle id="832511541#0.628__0__background.17" type="background" depart="54.52" departLane="random">
        <route edges="832511541#0.628 606446493#4"/>
    </vehicle>
    <vehicle id="606446495#0.451__0__background.19" type="background" depart="54.94" departLane="random">
        <route edges="606446495#0.451 606446495#5"/>
    </vehicle>
    <vehicle id="538625748.377__0__background.17" type="background" depart="56.15" departLane="random">
        <route edges="538625748.377 606446493#4"/>
    </vehicle>
    <vehicle id="832511541#0.628__0__background.18" type="background" depart="57.89" departLane="random">
        <route edges="832511541#0.628 606446493#4"/>
    </vehicle>
    <vehicle id="832511541#0.628__0__background.19" type="background" depart="59.78" departLane="random">
        <route edges="832511541#0.628 606446493#4"/>
    </vehicle>
    <vehicle id="538625748.377__1__background.0" type="background" depart="60.09" departLane="random">
        <route edges="538625748.377 606446493#4"/>
    </vehicle>
    <vehicle id="538625748.377__1__background.1" type="background" depart="60.19" departLane="random">
        <route edges="538625748.377 606446493#4"/>
    </vehicle>
    <vehicle id="606446495#0.451__1__background.0" type="background" depart="61.54" departLane="random">
        <route edges="606446495#0.451 606446495#5"/>
    </vehicle>
    <vehicle id="538625748.377__1__background.2" type="background" depart="61.72" departLane="random">
        <route edges="538625748.377 606446493#4"/>
    </vehicle>
    <vehicle id="606446495#0.451__1__background.1" type="background" depart="63.43" departLane="random">
        <route edges="606446495#0.451 606446495#5"/>
    </vehicle>
    <vehicle id="606446495#0.451__1__background.2" type="background" depart="63.47" departLane="random">
        <route edges="606446495#0.451 606446495#5"/>
    </vehicle>
    <vehicle id="538625748.377__1__background.3" type="background" depart="64.84" departLane="random">
        <route edges="538625748.377 606446493#4"/>
    </vehicle>
    <vehicle id="832511541#0.628__1__background.0" type="background" depart="68.46" departLane="random">
        <route edges="832511541#0.628 991377015#1"/>
    </vehicle>
    <vehicle id="606446495#0.451__1__background.3" type="background" depart="70.17" departLane="random">
        <route edges="606446495#0.451 606446495#5"/>
    </vehicle>
    <vehicle id="606446495#0.451__1__background.4" type="background" depart="72.29" departLane="random">
        <route edges="606446495#0.451 606446495#5"/>
    </vehicle>
    <vehicle id="606446495#0.451__1__background.5" type="background" depart="72.41" departLane="random">
        <route edges="606446495#0.451 991377015#1"/>
    </vehicle>
    <vehicle id="606446495#0.451__1__background.6" type="background" depart="73.67" departLane="random">
        <route edges="606446495#0.451 991377015#1"/>
    </vehicle>
    <vehicle id="538625748.377__1__background.4" type="background" depart="74.01" departLane="random">
        <route edges="538625748.377 606446493#4"/>
    </vehicle>
    <vehicle id="832511541#0.628__1__background.1" type="background" depart="74.36" departLane="random">
        <route edges="832511541#0.628 606446493#4"/>
    </vehicle>
    <vehicle id="606446495#0.451__1__background.7" type="background" depart="75.59" departLane="random">
        <route edges="606446495#0.451 606446495#5"/>
    </vehicle>
    <vehicle id="832511541#0.628__1__background.2" type="background" depart="76.26" departLane="random">
        <route edges="832511541#0.628 606446493#4"/>
    </vehicle>
    <vehicle id="606446495#0.451__1__background.8" type="background" depart="76.46" departLane="random">
        <route edges="606446495#0.451 991377015#1"/>
    </vehicle>
    <vehicle id="606446495#0.451__1__background.9" type="background" depart="76.73" departLane="random">
        <route edges="606446495#0.451 606446495#5"/>
    </vehicle>
    <vehicle id="606446495#0.451__1__background.10" type="background" depart="78.84" departLane="random">
        <route edges="606446495#0.451 606446495#5"/>
    </vehicle>
    <vehicle id="832511541#0.628__1__background.3" type="background" depart="79.56" departLane="random">
        <route edges="832511541#0.628 606446493#4"/>
    </vehicle>
    <vehicle id="606446495#0.451__1__background.11" type="background" depart="80.50" departLane="random">
        <route edges="606446495#0.451 606446495#5"/>
    </vehicle>
    <vehicle id="538625748.377__1__background.5" type="background" depart="83.16" departLane="random">
        <route edges="538625748.377 606446495#5"/>
    </vehicle>
    <vehicle id="832511541#0.628__1__background.4" type="background" depart="84.69" departLane="random">
        <route edges="832511541#0.628 606446493#4"/>
    </vehicle>
    <vehicle id="538625748.377__1__background.6" type="background" depart="85.80" departLane="random">
        <route edges="538625748.377 606446493#4"/>
    </vehicle>
    <vehicle id="538625748.377__1__background.7" type="background" depart="85.86" departLane="random">
        <route edges="538625748.377 606446493#4"/>
    </vehicle>
    <vehicle id="538625748.377__1__background.8" type="background" depart="87.35" departLane="random">
        <route edges="538625748.377 606446493#4"/>
    </vehicle>
    <vehicle id="832511541#0.628__1__background.5" type="background" depart="88.54" departLane="random">
        <route edges="832511541#0.628 991377015#1"/>
    </vehicle>
    <vehicle id="606446495#0.451__1__background.12" type="background" depart="89.83" departLane="random">
        <route edges="606446495#0.451 991377015#1"/>
    </vehicle>
    <vehicle id="832511541#0.628__1__background.6" type="background" depart="90.51" departLane="random">
        <route edges="832511541#0.628 606446493#4"/>
    </vehicle>
    <vehicle id="538625748.377__1__background.9" type="background" depart="91.85" departLane="random">
        <route edges="538625748.377 606446493#4"/>
    </vehicle>
    <vehicle id="832511541#0.628__1__background.7" type="background" depart="91.94" departLane="random">
        <route edges="832511541#0.628 606446493#4"/>
    </vehicle>
    <vehicle id="832511541#0.628__1__background.8" type="background" depart="92.29" departLane="random">
        <route edges="832511541#0.628 991377015#1"/>
    </vehicle>
    <vehicle id="538625748.377__1__background.10" type="background" depart="95.70" departLane="random">
        <route edges="538625748.377 606446493#4"/>
    </vehicle>
    <vehicle id="832511541#0.628__1__background.9" type="background" depart="97.85" departLane="random">
        <route edges="832511541#0.628 606446493#4"/>
    </vehicle>
    <vehicle id="606446495#0.451__1__background.13" type="background" depart="97.85" departLane="random">
        <route edges="606446495#0.451 991377015#1"/>
    </vehicle>
    <vehicle id="538625748.377__1__background.11" type="background" depart="99.52" departLane="random">
        <route edges="538625748.377 606446495#5"/>
    </vehicle>
    <vehicle id="832511541#0.628__1__background.10" type="background" depart="99.82" departLane="random">
        <route edges="832511541#0.628 606446493#4"/>
    </vehicle>
    <vehicle id="538625748.377__1__background.12" type="background" depart="102.11" departLane="random">
        <route edges="538625748.377 606446493#4"/>
    </vehicle>
    <vehicle id="832511541#0.628__1__background.11" type="background" depart="102.53" departLane="random">
        <route edges="832511541#0.628 606446493#4"/>
    </vehicle>
    <vehicle id="606446495#0.451__1__background.14" type="background" depart="102.87" departLane="random">
        <route edges="606446495#0.451 606446495#5"/>
    </vehicle>
    <vehicle id="606446495#0.451__1__background.15" type="background" depart="103.28" departLane="random">
        <route edges="606446495#0.451 991377015#1"/>
    </vehicle>
    <vehicle id="832511541#0.628__1__background.12" type="background" depart="103.32" departLane="random">
        <route edges="832511541#0.628 606446493#4"/>
    </vehicle>
    <vehicle id="832511541#0.628__1__background.13" type="background" depart="103.99" departLane="random">
        <route edges="832511541#0.628 606446493#4"/>
    </vehicle>
    <vehicle id="832511541#0.628__1__background.14" type="background" depart="104.08" departLane="random">
        <route edges="832511541#0.628 606446493#4"/>
    </vehicle>
    <vehicle id="538625748.377__1__background.13" type="background" depart="104.98" departLane="random">
        <route edges="538625748.377 606446493#4"/>
    </vehicle>
    <vehicle id="832511541#0.628__1__background.15" type="background" depart="105.08" departLane="random">
        <route edges="832511541#0.628 606446493#4"/>
    </vehicle>
    <vehicle id="832511541#0.628__1__background.16" type="background" depart="105.09" departLane="random">
        <route edges="832511541#0.628 606446493#4"/>
    </vehicle>
    <vehicle id="606446495#0.451__1__background.16" type="background" depart="105.90" departLane="random">
        <route edges="606446495#0.451 606446495#5"/>
    </vehicle>
    <vehicle id="832511541#0.628__1__background.17" type="background" depart="107.20" departLane="random">
        <route edges="832511541#0.628 606446493#4"/>
    </vehicle>
    <vehicle id="538625748.377__1__background.14" type="background" depart="107.92" departLane="random">
        <route edges="538625748.377 606446493#4"/>
    </vehicle>
    <vehicle id="538625748.377__1__background.15" type="background" depart="110.44" departLane="random">
        <route edges="538625748.377 606446493#4"/>
    </vehicle>
    <vehicle id="606446495#0.451__1__background.17" type="background" depart="110.49" departLane="random">
        <route edges="606446495#0.451 606446495#5"/>
    </vehicle>
    <vehicle id="606446495#0.451__1__background.18" type="background" depart="111.42" departLane="random">
        <route edges="606446495#0.451 991377015#1"/>
    </vehicle>
    <vehicle id="538625748.377__1__background.16" type="background" depart="112.24" departLane="random">
        <route edges="538625748.377 606446495#5"/>
    </vehicle>
    <vehicle id="606446495#0.451__1__background.19" type="background" depart="113.47" departLane="random">
        <route edges="606446495#0.451 606446495#5"/>
    </vehicle>
    <vehicle id="832511541#0.628__1__background.18" type="background" depart="113.82" departLane="random">
        <route edges="832511541#0.628 606446493#4"/>
    </vehicle>
    <vehicle id="832511541#0.628__1__background.19" type="background" depart="117.22" departLane="random">
        <route edges="832511541#0.628 991377015#1"/>
    </vehicle>
    <vehicle id="538625748.377__1__background.17" type="background" depart="118.72" departLane="random">
        <route edges="538625748.377 606446493#4"/>
    </vehicle>
    <vehicle id="538625748.377__2__background.0" type="background" depart="120.02" departLane="random">
        <route edges="538625748.377 606446495#5"/>
    </vehicle>
    <vehicle id="606446495#0.451__2__background.0" type="background" depart="120.29" departLane="random">
        <route edges="606446495#0.451 991377015#1"/>
    </vehicle>
    <vehicle id="832511541#0.628__2__background.0" type="background" depart="121.00" departLane="random">
        <route edges="832511541#0.628 606446493#4"/>
    </vehicle>
    <vehicle id="538625748.377__2__background.1" type="background" depart="121.48" departLane="random">
        <route edges="538625748.377 606446495#5"/>
    </vehicle>
    <vehicle id="606446495#0.451__2__background.1" type="background" depart="122.31" departLane="random">
        <route edges="606446495#0.451 606446495#5"/>
    </vehicle>
    <vehicle id="832511541#0.628__2__background.1" type="background" depart="123.60" departLane="random">
        <route edges="832511541#0.628 606446493#4"/>
    </vehicle>
    <vehicle id="538625748.377__2__background.2" type="background" depart="125.41" departLane="random">
        <route edges="538625748.377 606446495#5"/>
    </vehicle>
    <vehicle id="606446495#0.451__2__background.2" type="background" depart="128.53" departLane="random">
        <route edges="606446495#0.451 606446495#5"/>
    </vehicle>
    <vehicle id="832511541#0.628__2__background.2" type="background" depart="128.79" departLane="random">
        <route edges="832511541#0.628 606446493#4"/>
    </vehicle>
    <vehicle id="832511541#0.628__2__background.3" type="background" depart="128.82" departLane="random">
        <route edges="832511541#0.628 991377015#1"/>
    </vehicle>
    <vehicle id="538625748.377__2__background.3" type="background" depart="129.59" departLane="random">
        <route edges="538625748.377 606446495#5"/>
    </vehicle>
    <vehicle id="538625748.377__2__background.4" type="background" depart="129.59" departLane="random">
        <route edges="538625748.377 606446493#4"/>
    </vehicle>
    <vehicle id="832511541#0.628__2__background.4" type="background" depart="133.75" departLane="random">
        <route edges="832511541#0.628 606446493#4"/>
    </vehicle>
    <vehicle id="606446495#0.451__2__background.3" type="background" depart="134.15" departLane="random">
        <route edges="606446495#0.451 606446495#5"/>
    </vehicle>
    <vehicle id="538625748.377__2__background.5" type="background" depart="136.61" departLane="random">
        <route edges="538625748.377 606446493#4"/>
    </vehicle>
    <vehicle id="538625748.377__2__background.6" type="background" depart="137.09" departLane="random">
        <route edges="538625748.377 606446495#5"/>
    </vehicle>
    <vehicle id="606446495#0.451__2__background.4" type="background" depart="137.86" departLane="random">
        <route edges="606446495#0.451 606446495#5"/>
    </vehicle>
    <vehicle id="832511541#0.628__2__background.5" type="background" depart="138.82" departLane="random">
        <route edges="832511541#0.628 991377015#1"/>
    </vehicle>
    <vehicle id="606446495#0.451__2__background.5" type="background" depart="139.11" departLane="random">
        <route edges="606446495#0.451 991377015#1"/>
    </vehicle>
    <vehicle id="538625748.377__2__background.7" type="background" depart="139.40" departLane="random">
        <route edges="538625748.377 606446495#5"/>
    </vehicle>
    <vehicle id="832511541#0.628__2__background.6" type="background" depart="141.15" departLane="random">
        <route edges="832511541#0.628 606446493#4"/>
    </vehicle>
    <vehicle id="832511541#0.628__2__background.7" type="background" depart="141.25" departLane="random">
        <route edges="832511541#0.628 606446493#4"/>
    </vehicle>
    <vehicle id="606446495#0.451__2__background.6" type="background" depart="143.38" departLane="random">
        <route edges="606446495#0.451 606446495#5"/>
    </vehicle>
    <vehicle id="606446495#0.451__2__background.7" type="background" depart="144.00" departLane="random">
        <route edges="606446495#0.451 606446495#5"/>
    </vehicle>
    <vehicle id="832511541#0.628__2__background.8" type="background" depart="145.18" departLane="random">
        <route edges="832511541#0.628 606446493#4"/>
    </vehicle>
    <vehicle id="606446495#0.451__2__background.8" type="background" depart="145.38" departLane="random">
        <route edges="606446495#0.451 606446495#5"/>
    </vehicle>
    <vehicle id="606446495#0.451__2__background.9" type="background" depart="145.85" departLane="random">
        <route edges="606446495#0.451 606446495#5"/>
    </vehicle>
    <vehicle id="538625748.377__2__background.8" type="background" depart="150.15" departLane="random">
        <route edges="538625748.377 606446493#4"/>
    </vehicle>
    <vehicle id="606446495#0.451__2__background.10" type="background" depart="151.41" departLane="random">
        <route edges="606446495#0.451 991377015#1"/>
    </vehicle>
    <vehicle id="606446495#0.451__2__background.11" type="background" depart="151.76" departLane="random">
        <route edges="606446495#0.451 991377015#1"/>
    </vehicle>
    <vehicle id="538625748.377__2__background.9" type="background" depart="153.16" departLane="random">
        <route edges="538625748.377 606446493#4"/>
    </vehicle>
    <vehicle id="606446495#0.451__2__background.12" type="background" depart="153.35" departLane="random">
        <route edges="606446495#0.451 606446495#5"/>
    </vehicle>
    <vehicle id="606446495#0.451__2__background.13" type="background" depart="153.66" departLane="random">
        <route edges="606446495#0.451 606446495#5"/>
    </vehicle>
    <vehicle id="606446495#0.451__2__background.14" type="background" depart="154.35" departLane="random">
        <route edges="606446495#0.451 606446495#5"/>
    </vehicle>
    <vehicle id="832511541#0.628__2__background.9" type="background" depart="154.60" departLane="random">
        <route edges="832511541#0.628 606446493#4"/>
    </vehicle>
    <vehicle id="606446495#0.451__2__background.15" type="background" depart="155.15" departLane="random">
        <route edges="606446495#0.451 606446495#5"/>
    </vehicle>
    <vehicle id="832511541#0.628__2__background.10" type="background" depart="157.11" departLane="random">
        <route edges="832511541#0.628 606446493#4"/>
    </vehicle>
    <vehicle id="538625748.377__2__background.10" type="background" depart="159.77" departLane="random">
        <route edges="538625748.377 606446493#4"/>
    </vehicle>
    <vehicle id="832511541#0.628__2__background.11" type="background" depart="160.90" departLane="random">
        <route edges="832511541#0.628 606446493#4"/>
    </vehicle>
    <vehicle id="606446495#0.451__2__background.16" type="background" depart="162.62" departLane="random">
        <route edges="606446495#0.451 606446495#5"/>
    </vehicle>
    <vehicle id="606446495#0.451__2__background.17" type="background" depart="163.50" departLane="random">
        <route edges="606446495#0.451 606446495#5"/>
    </vehicle>
    <vehicle id="832511541#0.628__2__background.12" type="background" depart="164.11" departLane="random">
        <route edges="832511541#0.628 606446493#4"/>
    </vehicle>
    <vehicle id="606446495#0.451__2__background.18" type="background" depart="164.42" departLane="random">
        <route edges="606446495#0.451 991377015#1"/>
    </vehicle>
    <vehicle id="832511541#0.628__2__background.13" type="background" depart="164.49" departLane="random">
        <route edges="832511541#0.628 606446493#4"/>
    </vehicle>
    <vehicle id="832511541#0.628__2__background.14" type="background" depart="165.63" departLane="random">
        <route edges="832511541#0.628 606446493#4"/>
    </vehicle>
    <vehicle id="832511541#0.628__2__background.15" type="background" depart="165.73" departLane="random">
        <route edges="832511541#0.628 606446493#4"/>
    </vehicle>
    <vehicle id="538625748.377__2__background.11" type="background" depart="168.77" departLane="random">
        <route edges="538625748.377 606446495#5"/>
    </vehicle>
    <vehicle id="832511541#0.628__2__background.16" type="background" depart="168.93" departLane="random">
        <route edges="832511541#0.628 991377015#1"/>
    </vehicle>
    <vehicle id="606446495#0.451__2__background.19" type="background" depart="169.49" departLane="random">
        <route edges="606446495#0.451 991377015#1"/>
    </vehicle>