<?xml version="1.0" encoding="UTF-8"?>

<!-- generated on 2025-06-24 10:16:17 by Eclipse SUMO polyconvert Version 1.22.0
<polyconvertConfiguration xmlns:xsi="http://www.w3.org/2001/XMLSchema-instance" xsi:noNamespaceSchemaLocation="http://sumo.dlr.de/xsd/polyconvertConfiguration.xsd">

    <input>
        <net-file value="/home/china/桌面/tscvla/sim_envs/Beijing_Yongrunlu/env/map.net.xml"/>
        <osm-files value="/home/china/桌面/tscvla/sim_envs/Beijing_Yongrunlu/map.osm"/>
        <osm.merge-relations value="1"/>
        <type-file value="/home/china/桌面/TransSimHub/tshub/sumo_tools/./osm_build_type/poly.typ.xml"/>
    </input>

    <output>
        <output-file value="/home/china/桌面/tscvla/sim_envs/Beijing_Yongrunlu/env/map.poly.xml"/>
    </output>

    <building_defaults>
        <discard value="true"/>
    </building_defaults>

</polyconvertConfiguration>
-->

<additional xmlns:xsi="http://www.w3.org/2001/XMLSchema-instance" xsi:noNamespaceSchemaLocation="http://sumo.dlr.de/xsd/additional_file.xsd">
    <location netOffset="-433549.40,-4437010.31" convBoundary="0.00,0.00,774.93,1282.11" origBoundary="116.220572,40.080759,116.229600,40.092348" projParameter="+proj=utm +zone=50 +ellps=WGS84 +datum=WGS84 +units=m +no_defs"/>

    <poly id="1178568068" type="landuse" color="194,194,130" fill="1" layer="-3.00" shape="537.772156,846.295050 420.212187,834.696679 432.095395,773.775198 547.687228,796.213571 537.772156,846.295050"/>
    <poly id="1258294560" type="tourism" color="207,245,201" fill="1" layer="-2.00" shape="402.384784,1231.162780 413.411377,1238.403995 506.686934,1245.306975 578.103913,1254.221372 630.212277,1273.105486 655.064802,1282.114093 703.350014,1159.981551 774.934980,949.989286 741.903582,943.715176 675.038012,931.030042 417.452233,913.310187 403.679779,923.675604 402.384784,1231.162780"/>
    <poly id="13310182" type="commercial" color="209,209,204" fill="1" layer="-3.00" shape="562.227831,777.061493 550.653149,760.767052 449.468230,747.982526 431.232574,754.967859 408.411765,864.958690 419.982642,880.797844 528.920908,891.239008 547.552688,877.867843 562.227831,777.061493"/>
    <poly id="1346089980" type="building" color="255,230,230" fill="1" layer="-1.00" shape="198.668126,1143.793893 325.579370,1117.633067 309.858301,1046.251468 348.707640,990.333989 297.564228,947.500183 196.998999,901.002300 105.121721,1011.586633 184.334307,1074.220845 198.668126,1143.793893"/>
    <poly id="1371825798" type="leisure" color="207,245,201" fill="1" layer="-2.00" shape="300.962416,1028.224603 322.808898,992.513400 311.807993,989.245962 287.621189,998.070693 281.406384,1011.789278 289.387549,1031.478032 300.962416,1028.224603"/>
    <poly id="1371825798#1" type="sport" color="79,230,125" fill="1" layer="-2.00" shape="300.962416,1028.224603 322.808898,992.513400 311.807993,989.245962 287.621189,998.070693 281.406384,1011.789278 289.387549,1031.478032 300.962416,1028.224603"/>
    <poly id="17314338" type="tourism" color="207,245,201" fill="0" layer="-2.00" shape="655.064802,1282.114093 630.212277,1273.105486 578.103913,1254.221372 506.686934,1245.306975 413.411377,1238.403995 402.384784,1231.162780 403.679779,923.675604 417.452233,913.310187 675.038012,931.030042 741.903582,943.715176 774.934980,949.989286 703.350014,1159.981551"/>
    <poly id="784370827" type="landuse" color="194,194,130" fill="1" layer="-3.00" shape="210.415079,816.667784 296.176436,707.259303 313.867434,701.366216 404.341338,730.404113 412.023157,743.135764 388.014604,863.560098 369.857756,876.616715 329.555300,874.492619 272.188864,865.069368 212.542196,835.697174 210.415079,816.667784"/>
    <poly id="965172276" type="landuse" color="194,194,130" fill="1" layer="-3.00" shape="141.617810,1166.415244 364.839850,1168.607142 370.604641,954.511489 377.841016,910.258503 287.689385,906.204725 257.108587,897.502589 221.625110,881.927951 188.885570,864.264864 146.957332,905.369085 90.137292,986.653432 75.079496,1008.874642 138.213986,1158.364045 141.617810,1166.415244"/>
</additional>
